! B3LYP 6-31G* SP

* xyz 0 1
C -1.9965 -0.2900 2.1661
C -0.9003 -0.7793 1.2260
N -1.4706 -1.2213 -0.0491
C -1.4147 -0.5989 -1.2564
N -0.6822 0.6075 -1.4911
C 0.6350 0.5392 -2.1257
C 1.6513 0.0174 -1.1475
C 2.3627 0.9032 -0.3249
C 3.2427 0.4149 0.6443
C 3.4350 -0.9682 0.8006
C 4.3419 -1.4855 1.8882
F 3.6535 -1.4976 3.0873
F 5.4539 -0.6709 2.0141
F 4.7755 -2.7695 1.6049
C 2.7004 -1.8542 -0.0070
C 1.8221 -1.3647 -0.9775
S -1.4760 2.1377 -1.2976
O -2.7604 1.9611 -0.5367
O -1.7995 2.7053 -2.6513
C -0.4266 3.2380 -0.4098
C 0.3600 4.1755 -1.0959
C 1.2259 5.0166 -0.3897
C 1.3119 4.9237 1.0025
C 0.5311 3.9904 1.6900
C -0.3366 3.1495 0.9866
N -2.0168 -1.2881 -2.2598
C -2.4781 -2.3836 -1.6295
C -3.1727 -3.4527 -2.1904
C -3.5313 -4.5187 -1.3438
F -4.2085 -5.5800 -1.8468
C -3.1826 -4.4921 0.0260
C -2.4763 -3.3990 0.5615
C -2.1481 -2.3535 -0.3041
H -2.5755 0.5272 1.6901
H -2.6888 -1.1184 2.4219
H -1.5395 0.0934 3.1024
H -0.3485 -1.6194 1.6997
H -0.1755 0.0441 1.0595
H 0.5872 -0.1199 -3.0200
H 0.9433 1.5436 -2.4885
H 2.2282 1.9722 -0.4236
H 3.7668 1.1181 1.2795
H 2.7957 -2.9253 0.1180
H 1.2566 -2.0641 -1.5812
H 0.3137 4.2481 -2.1748
H 1.8341 5.7364 -0.9221
H 1.9851 5.5726 1.5474
H 0.6004 3.9163 2.7677
H -0.9320 2.4290 1.5299
H -3.4240 -3.4657 -3.2431
H -3.4562 -5.3197 0.6676
H -2.1960 -3.3811 1.6060
*
