! B3LYP 6-31G* SP

* xyz 0 1
C 8.5215 -0.8308 -2.3063
N 7.3572 -0.5196 -1.4852
C 6.4740 0.5635 -1.8155
O 6.8100 1.3863 -2.7128
C 5.1793 0.7427 -1.1110
C 4.5309 -0.3420 -0.4920
C 3.3082 -0.1581 0.1612
C 2.7149 1.1077 0.2073
S 1.1736 1.3168 1.0291
O 0.8090 2.7721 1.1117
O 1.2843 0.7736 2.4259
N -0.0600 0.4668 0.1533
C -0.4301 0.8977 -1.1954
C -1.8391 1.4242 -1.1915
C -2.9249 0.5451 -1.3320
C -4.2369 1.0224 -1.2491
C -4.4811 2.3928 -1.0216
O -5.7771 2.9285 -0.9316
C -6.9871 2.1712 -0.9983
F -7.0192 1.2340 0.0226
F -7.0886 1.5400 -2.2273
F -8.0597 3.0308 -0.8493
C -3.3939 3.2638 -0.8740
C -2.0825 2.7850 -0.9493
C -0.5601 -0.7747 0.6639
N -0.1178 -1.9301 0.1025
C -0.5472 -3.1489 0.5083
C -1.4806 -3.2551 1.5413
C -1.9289 -4.5174 1.9625
C -2.8694 -4.6218 2.9877
C -3.3633 -3.4718 3.6045
C -2.9228 -2.2084 3.1985
C -1.9774 -2.0771 2.1556
C -1.5215 -0.8107 1.7019
C -2.0663 0.4717 2.2944
C 3.3439 2.1888 -0.4212
C 4.5644 2.0074 -1.0788
H 9.0707 -1.6919 -1.8718
H 8.1964 -1.0953 -3.3352
H 9.2030 0.0458 -2.3446
H 7.1926 -1.0907 -0.6256
H 4.9483 -1.3396 -0.5296
H 2.8208 -1.0050 0.6270
H -0.3359 0.0461 -1.9055
H 0.2665 1.6884 -1.5541
H -2.7548 -0.5138 -1.4893
H -5.0481 0.3170 -1.3560
H -3.5665 4.3180 -0.6880
H -1.2570 3.4740 -0.8093
H -0.1570 -4.0336 0.0205
H -1.5558 -5.4215 1.4952
H -3.2178 -5.5976 3.3057
H -4.0936 -3.5590 4.3996
H -3.3306 -1.3452 3.7071
H -1.7658 0.5475 3.3596
H -3.1729 0.4808 2.2191
H -1.7047 1.3775 1.7732
H 2.8937 3.1722 -0.4057
H 5.0325 2.8596 -1.5542
*
