! B3LYP 6-31G* SP

* xyz 0 1
C -7.1207 -0.9253 -1.9927
N -6.1269 -0.4841 -0.9996
C -4.8430 -0.1912 -1.4004
O -4.4948 -0.3085 -2.6071
C -3.9347 0.2506 -0.4454
C -2.6040 0.6289 -0.4970
C -1.7132 0.7280 -1.7050
C -0.2840 0.4433 -1.3512
O 0.5396 1.3960 -1.2913
N 0.1242 -0.9014 -1.0554
C 1.4551 -1.2644 -0.6673
N 2.4726 -0.3874 -0.5332
C 3.6301 -0.9971 -0.1514
C 4.8824 -0.2215 0.0481
C 4.9707 1.0963 -0.4356
C 6.1325 1.8469 -0.2454
F 6.1984 3.1195 -0.7091
C 7.2243 1.2936 0.4250
C 7.1709 -0.0269 0.8999
C 8.3279 -0.6093 1.6732
F 9.5229 -0.0284 1.2846
F 8.4202 -1.9730 1.4548
F 8.1344 -0.3810 3.0227
C 5.9878 -0.7688 0.7301
C 3.5234 -2.3829 0.0129
S 1.9382 -2.8339 -0.3259
C -2.3001 1.0343 0.8023
O -3.3532 0.8843 1.5829
C -4.3318 0.4165 0.8445
N -5.5975 0.1400 1.2568
C -5.9968 0.3740 2.6500
C -6.5075 -0.2907 0.3174
O -7.7043 -0.5030 0.6633
H -7.8684 -1.6082 -1.5360
H -6.6423 -1.4937 -2.8186
H -7.6433 -0.0410 -2.4142
H -2.0269 -0.0033 -2.4770
H -1.8055 1.7468 -2.1383
H -0.5901 -1.6614 -1.1171
H 4.1400 1.5488 -0.9627
H 8.1091 1.8992 0.5758
H 5.9314 -1.7636 1.1493
H 4.3122 -3.0690 0.2863
H -1.3486 1.4232 1.1402
H -6.5351 1.3423 2.7251
H -5.1154 0.3988 3.3260
H -6.6604 -0.4432 3.0058
*
