! B3LYP 6-31G* SP

* xyz 0 1
N 3.1260 -1.8018 2.5438
C 1.9408 -1.2173 2.0012
O 0.8584 -1.3252 2.6361
C 2.0083 -0.4165 0.7182
C 2.7325 -1.1590 -0.3945
C 3.5821 -0.4504 -1.2637
C 4.2201 -1.1031 -2.3225
C 4.0149 -2.4685 -2.5298
C 3.1723 -3.1845 -1.6774
C 2.5322 -2.5371 -0.6168
N 0.6740 0.0388 0.2629
C 0.5474 1.4168 -0.1594
O 1.4063 1.9096 -0.9392
C -0.5857 2.2608 0.2709
C -1.3681 2.8940 -0.7059
C -2.4932 3.6300 -0.3368
C -2.8204 3.7454 1.0129
N -2.0346 3.1626 1.9551
C -0.9281 2.4384 1.6309
N -0.1270 1.8981 2.6852
C -0.3433 -0.9587 -0.1528
C -0.4093 -1.0848 -1.6955
C -1.7686 -0.5202 -2.1456
C -2.5079 -0.3131 -0.8788
C -3.8341 0.1068 -0.7452
F -4.5896 0.3762 -1.8385
C -4.3716 0.2507 0.5424
C -3.5843 -0.0357 1.6724
Cl -4.2575 0.1519 3.2804
C -2.2545 -0.4567 1.5156
C -1.7280 -0.5631 0.2245
H 4.0472 -1.6843 2.0665
H 3.0851 -2.3444 3.4348
H 2.6185 0.4756 0.9871
H 3.7535 0.6091 -1.1226
H 4.8726 -0.5485 -2.9845
H 4.5088 -2.9716 -3.3509
H 3.0134 -4.2428 -1.8393
H 1.8852 -3.1149 0.0294
H -1.1263 2.7894 -1.7565
H -3.1107 4.1000 -1.0911
H -3.6937 4.3081 1.3138
H -0.4508 1.9738 3.6748
H 0.8202 1.5010 2.5101
H -0.1331 -1.9529 0.2940
H -0.3416 -2.1575 -1.9818
H 0.4231 -0.5451 -2.1973
H -1.6376 0.4505 -2.6697
H -2.3052 -1.2409 -2.7993
H -5.3950 0.5816 0.6633
H -1.6429 -0.6707 2.3807
*
