! B3LYP 6-31G* SP

* xyz 0 1
N -4.9582 1.0295 -1.0714
C -5.1581 -0.4132 -0.9594
C -4.5363 -0.9527 0.3321
C -3.0370 -0.8811 0.2976
C -2.1816 -1.7943 -0.3101
N -0.8981 -1.3832 -0.2012
C -0.9348 -0.2124 0.4607
C 0.1481 0.6034 0.7960
O 1.4465 0.2074 0.4455
C 2.6198 0.9607 0.7353
C 3.8176 0.2261 0.2094
C 4.2509 0.4318 -1.1108
C 5.3436 -0.2827 -1.6124
C 6.0017 -1.2145 -0.8048
C 5.5650 -1.4370 0.5042
C 4.4728 -0.7246 1.0095
C -0.1335 1.8092 1.4831
C -1.4637 2.1575 1.8038
C -2.5291 1.3130 1.4488
C -2.2254 0.1290 0.7780
H -5.5493 1.3717 -1.8632
H -3.9661 1.2034 -1.3530
H -6.2493 -0.6268 -0.9372
H -4.7263 -0.9328 -1.8445
H -4.8392 -2.0142 0.4602
H -4.9288 -0.3885 1.2050
H -2.4840 -2.7036 -0.8130
H -0.0537 -1.8741 -0.5708
H 2.7138 1.1025 1.8343
H 2.5503 1.9632 0.2591
H 3.7432 1.1433 -1.7504
H 5.6775 -0.1169 -2.6285
H 6.8462 -1.7677 -1.1949
H 6.0704 -2.1646 1.1261
H 4.1380 -0.9140 2.0219
H 0.6618 2.4831 1.7706
H -1.6652 3.0837 2.3262
H -3.5497 1.5802 1.6890
*
