! B3LYP 6-31G* SP

* xyz 0 1
N -0.7483 -0.7763 -2.8025
C -1.7961 -0.4516 -1.8862
O -2.9368 -0.1708 -2.3430
C -1.5950 -0.4704 -0.3850
C -1.8575 -1.8362 0.2338
C -1.5396 -3.0381 -0.4325
C -1.7487 -4.2713 0.1920
C -2.2673 -4.3229 1.4872
C -2.5752 -3.1408 2.1629
C -2.3688 -1.9050 1.5435
N -0.2845 0.0905 0.0269
C -0.2510 1.4546 0.5114
O 0.3174 1.7162 1.6064
C -0.8850 2.5560 -0.2417
C -1.5482 3.5897 0.4363
C -2.1354 4.6330 -0.2816
C -2.0424 4.6417 -1.6741
N -1.3778 3.6461 -2.3177
C -0.8010 2.6173 -1.6408
C 0.8964 -0.7857 0.2167
C 1.0390 -1.2569 1.6856
C 2.4305 -0.8188 2.1802
C 3.0182 -0.0973 1.0270
C 4.2724 0.5180 0.9797
F 5.0972 0.4943 2.0559
C 4.6651 1.1648 -0.2017
C 3.8050 1.1860 -1.3148
Cl 4.2977 1.9981 -2.7888
C 2.5508 0.5594 -1.2468
C 2.1759 -0.0737 -0.0574
H 0.1956 -1.0727 -2.4822
H -0.9277 -0.7398 -3.8303
H -2.3919 0.1963 0.0202
H -1.1210 -3.0301 -1.4289
H -1.5024 -5.1883 -0.3275
H -2.4255 -5.2789 1.9692
H -2.9692 -3.1813 3.1701
H -2.5985 -0.9986 2.0901
H -1.6226 3.5815 1.5168
H -2.6572 5.4273 0.2363
H -2.4918 5.4444 -2.2433
H -0.2578 1.8645 -2.1933
H 0.8472 -1.6741 -0.4447
H 0.9475 -2.3640 1.7400
H 0.2504 -0.8192 2.3352
H 3.0557 -1.7003 2.4387
H 2.3446 -0.1385 3.0548
H 5.6325 1.6478 -0.2537
H 1.8850 0.5743 -2.0982
*
