! B3LYP 6-31G* SP

* xyz 0 1
C -6.6338 -0.7383 1.0178
C -6.1513 -0.5571 -0.4153
N -4.8444 0.0871 -0.4274
N -4.6572 1.3950 -0.4544
N -3.3584 1.6402 -0.3963
C -2.7741 0.4256 -0.3237
C -1.3164 0.2272 -0.2349
S -0.2055 1.4912 -0.2182
C 1.1395 0.4834 -0.1059
C 2.5524 0.9252 -0.0424
C 2.8830 2.2918 -0.0733
C 4.2178 2.6975 -0.0128
C 5.2369 1.7484 0.0790
C 4.9340 0.3835 0.1114
O 5.9947 -0.5303 0.2043
C 5.8377 -1.9449 0.2467
C 3.5867 -0.0250 0.0503
N 0.7608 -0.8148 -0.0802
C -0.5889 -0.9695 -0.1506
O -1.1494 -2.2458 -0.1359
N -3.6944 -0.5574 -0.3349
H -5.9199 -1.3741 1.5834
H -6.7203 0.2492 1.5190
H -7.6296 -1.2294 1.0176
H -6.8809 0.0653 -0.9771
H -6.0835 -1.5489 -0.9124
H 2.1144 3.0500 -0.1441
H 4.4632 3.7514 -0.0372
H 6.2682 2.0746 0.1253
H 5.3427 -2.3022 -0.6809
H 6.8380 -2.4185 0.3202
H 5.2403 -2.2363 1.1363
H 3.3406 -1.0778 0.0746
H -2.1428 -2.4163 -0.1862
*
