! B3LYP 6-31G* SP

* xyz 0 1
C -4.6561 -3.1387 0.6175
N -4.8774 -1.6879 0.4542
C -3.8514 -0.8174 0.7026
O -2.7283 -1.2814 1.0404
C -4.0383 0.5796 0.5583
C -3.0262 1.5530 0.8686
C -1.6664 1.2203 1.4646
C -0.6661 0.7667 0.4330
O -1.0397 0.5141 -0.7500
N 0.7086 0.6009 0.8241
C 1.7802 0.2256 -0.0548
N 3.0535 0.0963 0.3756
C 3.9097 -0.2501 -0.6267
C 5.3643 -0.4410 -0.3803
C 6.1470 -1.2142 -1.2586
C 7.5143 -1.3919 -1.0278
C 8.1293 -0.8192 0.0960
C 9.6167 -0.9584 0.3090
F 10.0737 -2.1643 -0.1954
F 9.9240 -0.9110 1.6573
F 10.2666 0.0759 -0.3385
C 7.3573 -0.0330 0.9652
C 5.9885 0.1471 0.7400
F 5.2878 0.9258 1.6037
C 3.3027 -0.3954 -1.8790
S 1.6602 -0.0793 -1.7060
C -3.2754 2.9107 0.6100
C -4.4960 3.3299 0.1070
C -5.5002 2.4075 -0.1517
C -5.3008 1.0216 0.0664
N -6.3006 0.1086 -0.2035
C -7.6196 0.5640 -0.6976
C -6.0776 -1.2338 -0.0200
O -6.9871 -2.0678 -0.2994
H -4.2214 -3.5560 -0.3165
H -3.9691 -3.3488 1.4677
H -5.6027 -3.6745 0.8512
H -1.7582 0.4709 2.2773
H -1.2432 2.1165 1.9696
H 0.9561 0.7794 1.8246
H 5.7062 -1.6961 -2.1219
H 8.0915 -1.9783 -1.7314
H 7.8159 0.4505 1.8192
H 3.7910 -0.6404 -2.8120
H -2.5173 3.6600 0.8088
H -4.6690 4.3836 -0.0781
H -6.4295 2.8022 -0.5368
H -7.5029 1.0551 -1.6879
H -8.3518 -0.2610 -0.8272
H -8.0727 1.2739 0.0281
*
