! B3LYP 6-31G* SP

* xyz 0 1
C -4.7169 1.7692 -0.1399
O -4.7729 0.3708 -0.0010
N -3.4990 -0.0877 -0.1454
C -3.0792 -0.5681 -1.4621
C -2.7170 -0.3384 1.0386
O -3.3070 -0.4190 2.1495
C -1.2460 -0.4913 1.0038
S -0.1980 0.1628 -0.1410
C 1.1913 -0.4139 0.6184
C 2.5782 -0.1276 0.2006
C 3.5010 0.2807 1.1798
C 4.8043 0.6355 0.8244
C 5.2030 0.5849 -0.5112
C 4.3057 0.1588 -1.4921
C 3.0021 -0.2209 -1.1483
O 2.1777 -0.7179 -2.1593
N 0.8823 -1.0582 1.7661
C -0.4608 -1.1076 1.9787
O -0.9985 -1.7323 3.0995
H -5.7404 2.1806 -0.0236
H -4.0734 2.2211 0.6472
H -4.3450 2.0530 -1.1493
H -2.3496 0.1364 -1.9091
H -2.6328 -1.5818 -1.3788
H -3.9549 -0.6272 -2.1426
H 3.2040 0.3517 2.2193
H 5.5028 0.9602 1.5849
H 6.2115 0.8660 -0.7856
H 4.6316 0.0997 -2.5230
H 1.2926 -1.1709 -1.9772
H -0.3967 -2.1685 3.7875
*
