! B3LYP 6-31G* SP

* xyz 0 1
O 1.3942 1.9980 1.5475
C 1.8486 1.0735 0.8188
N 1.1195 -0.1606 0.6978
C -0.2322 -0.3274 1.2494
C -1.3019 0.4537 0.5000
C -1.0400 1.1496 -0.6969
C -2.0539 1.8625 -1.3420
C -3.3524 1.9035 -0.8053
C -4.4604 2.6685 -1.4887
F -4.9231 3.6617 -0.6447
F -5.5012 1.8072 -1.7857
F -4.0287 3.2567 -2.6652
C -3.6135 1.2211 0.3956
F -4.8539 1.2454 0.9466
C -2.5982 0.5089 1.0398
C -0.5763 -1.8024 1.4109
N -0.5407 -2.2864 2.6857
C -0.8246 -3.5744 2.9977
C -1.1789 -4.4672 1.9962
C -1.2239 -4.0281 0.6764
C -0.8985 -2.6974 0.3415
C -1.0025 -2.2797 -1.1163
F -2.1971 -1.6166 -1.3233
F 0.0491 -1.4670 -1.4837
F -0.9731 -3.3803 -1.9563
C 3.1294 1.2764 0.1013
C 4.0564 2.2273 0.5677
C 5.2634 2.4310 -0.1081
C 5.5549 1.6957 -1.2590
C 4.6377 0.7585 -1.7391
C 3.4294 0.5497 -1.0668
H 1.6264 -1.0011 0.3399
H -0.2145 0.1072 2.2751
H -0.0582 1.1384 -1.1494
H -1.8158 2.3791 -2.2627
H -2.8236 -0.0070 1.9654
H -0.7826 -3.9010 4.0282
H -1.4212 -5.4936 2.2403
H -1.5186 -4.7402 -0.0835
H 3.8524 2.8058 1.4602
H 5.9733 3.1599 0.2611
H 6.4890 1.8559 -1.7816
H 4.8600 0.1972 -2.6375
H 2.7256 -0.1619 -1.4778
*
