! B3LYP 6-31G* SP

* xyz 0 1
O 1.6968 -1.5830 -1.3882
C 1.9112 -0.5036 -0.7711
N 0.9212 0.5385 -0.7988
C -0.4384 0.3022 -1.3033
C -1.2140 -0.6623 -0.4244
C -2.2622 -1.4088 -0.9854
C -3.0150 -2.2839 -0.1982
C -2.7377 -2.4286 1.1728
C -3.5460 -3.3619 2.0420
F -2.7006 -4.2566 2.6731
F -4.2224 -2.6277 2.9991
F -4.4698 -4.0806 1.3027
C -1.7005 -1.6675 1.7412
F -1.4177 -1.7685 3.0651
C -0.9494 -0.7921 0.9515
C -1.1996 1.6001 -1.4631
N -1.7169 1.9091 -2.6858
C -2.4278 3.0468 -2.9054
C -2.6529 3.9427 -1.8599
C -2.1416 3.6558 -0.5943
C -1.4132 2.4826 -0.3850
F -0.9214 2.2192 0.8510
C 3.1845 -0.3281 -0.0339
C 4.3139 -1.0873 -0.3789
C 5.5093 -0.9266 0.3221
C 5.5689 -0.0114 1.3750
O 6.6436 0.1413 2.0146
N 4.4657 0.7122 1.7119
C 3.2892 0.5727 1.0408
H 1.2027 1.5041 -0.5167
H -0.3395 -0.1557 -2.3139
H -2.4998 -1.3103 -2.0377
H -3.8149 -2.8424 -0.6668
H -0.1602 -0.2183 1.4197
H -2.8195 3.2545 -3.8921
H -3.2186 4.8498 -2.0289
H -2.3106 4.3431 0.2247
H 4.2755 -1.7966 -1.1964
H 6.3803 -1.5094 0.0483
H 4.5153 1.3881 2.5076
H 2.4320 1.1485 1.3649
*
