! B3LYP 6-31G* SP

* xyz 0 1
O 6.7710 -2.1083 -0.5642
C 5.9068 -2.4873 0.2721
O 6.1154 -3.6684 0.9797
C 4.6835 -1.6872 0.5005
C 3.7220 -2.1114 1.4344
C 2.5641 -1.3588 1.6510
C 2.3492 -0.1737 0.9358
S 0.8845 0.7725 1.1777
O 1.2756 2.1274 1.6980
O -0.0163 0.1054 2.1795
N 0.0346 0.9444 -0.3283
C -0.0965 -0.2047 -1.2299
C -0.9447 -1.2734 -0.5976
C -0.3533 -2.4750 -0.1272
C -1.1353 -3.4602 0.5026
C -2.4977 -3.2153 0.6466
O -3.3985 -3.9890 1.2001
C -4.5614 -3.3663 1.1232
C -4.4126 -2.1351 0.4931
C -3.0727 -2.0603 0.1942
C -2.3319 -1.0629 -0.4337
C -0.7676 2.1141 -0.5329
N -1.7342 2.4261 0.3721
C -2.5297 3.5186 0.2328
C -2.3603 4.3832 -0.8596
C -3.2716 5.5683 -1.0539
F -2.6112 6.5876 -1.7178
F -4.3686 5.1809 -1.8003
F -3.7060 6.0568 0.1663
C -1.3777 4.0713 -1.8118
C -0.5675 2.9446 -1.6479
Cl 0.7133 2.6305 -2.8118
C 3.3037 0.2559 0.0069
C 4.4627 -0.4941 -0.2112
H 6.9494 -4.2238 0.8309
H 3.8622 -3.0257 1.9970
H 1.8348 -1.7078 2.3703
H 0.9122 -0.5949 -1.4822
H -0.5671 0.1013 -2.1894
H 0.7092 -2.6446 -0.2455
H -0.6911 -4.3775 0.8661
H -5.4910 -3.7694 1.5018
H -5.1805 -1.4014 0.2861
H -2.8092 -0.1537 -0.7778
H -3.2950 3.7080 0.9739
H -1.2342 4.7056 -2.6778
H 3.1456 1.1687 -0.5540
H 5.1836 -0.1411 -0.9379
*
