! B3LYP 6-31G* SP

* xyz 0 1
C 5.7817 -1.0257 0.3011
C 4.9208 0.2216 0.1818
O 3.5462 -0.1480 0.1611
C 2.5145 0.7897 0.0582
O 2.7736 2.0215 -0.0215
C 1.1197 0.3357 0.0429
C 0.6882 -0.9831 0.1228
N -0.6617 -1.1434 0.0880
C -1.3197 0.0352 -0.0194
C -2.7958 0.1429 -0.0779
C -3.4272 1.3965 -0.1896
C -4.8218 1.4843 -0.2439
C -5.6003 0.3264 -0.1874
C -4.9858 -0.9226 -0.0766
C -3.5918 -1.0166 -0.0219
S -0.2340 1.3268 -0.0749
H 5.5373 -1.5668 1.2397
H 6.8547 -0.7407 0.3175
H 5.5994 -1.6966 -0.5650
H 5.1175 0.8880 1.0496
H 5.1796 0.7581 -0.7569
H 1.3612 -1.8262 0.2066
H -2.8488 2.3098 -0.2354
H -5.2994 2.4519 -0.3298
H -6.6796 0.3970 -0.2296
H -5.5901 -1.8195 -0.0329
H -3.1382 -1.9960 0.0641
*
