! B3LYP 6-31G* SP

* xyz -1 1
C -1.7017 -0.5639 -0.5272
C -1.7213 -1.7126 0.4560
C -0.8732 -1.7075 1.5893
N -0.0037 -0.6029 1.8669
C 1.4406 -0.7544 1.6780
C 1.7815 -0.6283 0.2187
C 1.6775 -1.7375 -0.6346
N 1.8926 -1.5995 -1.9700
C 2.2074 -0.3985 -2.5244
C 2.4117 -0.2920 -3.9048
C 2.7244 0.9479 -4.4718
C 2.8333 2.0843 -3.6632
C 2.6323 1.9876 -2.2826
C 2.3209 0.7469 -1.7064
C 2.1097 0.6194 -0.3297
S -0.6359 0.7759 2.7149
O -2.1347 0.8055 2.5981
O -0.2721 0.6774 4.1699
C 0.0192 2.2579 2.0243
C 1.1631 2.8488 2.5762
C 1.7261 3.9829 1.9836
C 1.1522 4.5424 0.8278
C 1.7567 5.7284 0.1828
O 2.7913 6.2620 0.6645
O 1.1924 6.2694 -0.9667
C -0.0043 3.9537 0.2883
C -0.5679 2.8228 0.8853
N -0.8668 -2.7660 2.4409
C -1.6628 -3.8477 2.2640
C -2.5412 -3.9032 1.1794
C -3.3763 -5.0170 1.0015
C -4.2569 -5.0681 -0.0793
C -4.3121 -4.0109 -0.9872
C -3.4852 -2.8963 -0.8232
C -2.5819 -2.8244 0.2607
H -2.6721 -0.0260 -0.4938
H -0.8961 0.1644 -0.3193
H -1.5217 -0.9478 -1.5532
H 1.9898 0.0152 2.2618
H 1.7728 -1.7415 2.0676
H 1.4079 -2.7086 -0.2397
H 2.3263 -1.1656 -4.5391
H 2.8808 1.0288 -5.5397
H 3.0732 3.0417 -4.1075
H 2.7171 2.8769 -1.6690
H 2.1927 1.4872 0.3104
H 1.6334 2.4202 3.4518
H 2.6172 4.4133 2.4230
H -0.4714 4.3623 -0.5989
H -1.4561 2.3833 0.4512
H -1.6124 -4.6607 2.9778
H -3.3488 -5.8460 1.6989
H -4.9001 -5.9285 -0.2123
H -4.9999 -4.0539 -1.8219
H -3.5679 -2.0976 -1.5475
*
