! B3LYP 6-31G* SP

* xyz 0 1
O -1.4913 0.3917 -2.0717
S -0.2623 0.8645 -1.3464
O 0.7944 1.2086 -2.3590
C -0.6189 2.3079 -0.4038
C -1.9012 2.8772 -0.4191
C -2.1740 4.0115 0.3519
C -1.1687 4.5831 1.1373
C 0.1112 4.0209 1.1524
C 0.3865 2.8862 0.3833
N 0.3048 -0.4035 -0.2954
C -0.3420 -0.6201 1.0024
C -1.8074 -0.9104 0.8238
C -2.2150 -2.0824 0.1659
C -3.5746 -2.3428 -0.0305
C -4.5347 -1.4366 0.4284
C -4.1366 -0.2695 1.0862
C -2.7782 -0.0061 1.2861
C 1.5925 -0.9833 -0.5404
N 2.6036 -0.7604 0.3424
C 3.8474 -1.2767 0.1627
C 4.1324 -2.0605 -0.9659
C 5.4939 -2.6809 -1.1493
F 5.5189 -3.9157 -0.5285
F 5.7771 -2.8460 -2.4941
F 6.4756 -1.8774 -0.5955
C 3.0921 -2.3370 -1.8661
C 1.8197 -1.7962 -1.6633
Cl 0.5263 -2.2042 -2.7826
H -2.6912 2.4421 -1.0171
H -3.1651 4.4462 0.3420
H -1.3814 5.4605 1.7342
H 0.8889 4.4631 1.7615
H 1.3789 2.4535 0.4056
H 0.1209 -1.4864 1.5248
H -0.1824 0.2709 1.6467
H -1.4793 -2.7879 -0.2003
H -3.8838 -3.2457 -0.5410
H -5.5867 -1.6385 0.2739
H -4.8808 0.4323 1.4400
H -2.4852 0.9042 1.7942
H 4.6110 -1.0758 0.9028
H 3.2647 -2.9804 -2.7201
*
