! B3LYP 6-31G* SP

* xyz 0 1
C -4.5272 -3.4922 1.1483
C -3.6651 -2.3924 0.6034
C -3.9167 -1.0589 0.9528
C -3.1373 -0.0284 0.4195
C -2.0919 -0.3128 -0.4831
C -1.2054 0.7717 -1.0887
N 0.1487 0.8489 -0.5167
C 0.7697 -0.1527 0.3113
O 0.1068 -0.7119 1.2268
C 2.2027 -0.4929 0.1422
C 2.8618 -0.2504 -1.0779
C 4.2112 -0.5798 -1.2369
C 4.9211 -1.1627 -0.1799
C 6.2739 -1.5029 -0.3110
C 6.9496 -2.0856 0.7633
C 6.2661 -2.3233 1.9584
N 4.9528 -1.9892 2.0729
C 4.2672 -1.4200 1.0443
C 2.9166 -1.0893 1.1984
C -1.8766 2.1382 -1.1606
N -2.6145 2.3774 -2.2827
C -3.2733 3.5414 -2.5023
C -3.2084 4.5615 -1.5637
C -2.4796 4.3662 -0.3943
C -1.8223 3.1445 -0.1428
C -1.0401 3.0093 1.1545
F 0.2976 3.2636 0.9178
F -1.1806 1.7509 1.7013
F -1.4880 3.9130 2.1035
C -1.8677 -1.6531 -0.8504
C -2.6475 -2.6815 -0.3153
H -4.8915 -3.2365 2.1661
H -5.3994 -3.6437 0.4787
H -3.9543 -4.4415 1.2176
H -4.7192 -0.8152 1.6381
H -3.3697 0.9864 0.7084
H -1.0536 0.4668 -2.1492
H 0.7757 1.5715 -0.9374
H 2.3323 0.1750 -1.9203
H 4.6965 -0.3848 -2.1858
H 6.8044 -1.3194 -1.2377
H 7.9948 -2.3513 0.6708
H 6.7806 -2.7745 2.7962
H 2.4289 -1.2891 2.1453
H -3.8402 3.6758 -3.4138
H -3.7191 5.4993 -1.7403
H -2.4355 5.1811 0.3169
H -1.0787 -1.9028 -1.5494
H -2.4554 -3.7039 -0.6166
*
