! B3LYP 6-31G* SP

* xyz 0 1
C 9.9615 -0.1424 -1.5921
C 8.4999 -0.5066 -1.3718
O 7.6835 0.5120 -1.8944
N 6.3994 0.1588 -1.6206
C 5.7280 0.6986 -0.4749
O 6.2844 1.6215 0.1799
C 4.3957 0.2012 -0.0498
C 3.5953 0.9829 0.8032
C 2.3484 0.5185 1.2321
C 1.8849 -0.7391 0.8234
S 0.3149 -1.3211 1.3630
O -0.0291 -0.7115 2.6933
O 0.3602 -2.8143 1.5329
N -0.8890 -0.8842 0.1909
C -1.3614 -1.8618 -0.7932
C -2.7818 -2.2432 -0.4801
C -3.8460 -1.4747 -0.9756
C -5.1625 -1.7658 -0.6031
C -5.4308 -2.8311 0.2799
O -6.7298 -3.1612 0.6980
C -7.9149 -2.4435 0.3553
F -8.9932 -3.0461 0.9697
F -8.1123 -2.4684 -1.0168
F -7.8206 -1.1363 0.8002
C -4.3651 -3.5933 0.7741
C -3.0497 -3.2997 0.4037
C -1.1880 0.5027 0.0082
N -0.5060 1.1876 -0.9451
C -0.7080 2.5052 -1.1783
C -1.6475 3.2150 -0.4277
C -1.8580 4.5813 -0.6677
C -2.8034 5.2886 0.0775
C -3.5423 4.6390 1.0655
C -3.3417 3.2789 1.3155
C -2.3899 2.5431 0.5745
C -2.1583 1.1614 0.8003
C -2.9433 0.4084 1.8489
C 2.6709 -1.5216 -0.0297
C 3.9199 -1.0606 -0.4582
H 10.6154 -0.9375 -1.1722
H 10.1930 0.8186 -1.0833
H 10.1689 -0.0414 -2.6805
H 8.2891 -1.4698 -1.8883
H 8.3294 -0.6290 -0.2762
H 5.8833 -0.4196 -2.3176
H 3.9323 1.9588 1.1351
H 1.7455 1.1400 1.8831
H -1.2900 -1.4387 -1.8211
H -0.7145 -2.7662 -0.7860
H -3.6543 -0.6366 -1.6344
H -5.9602 -1.1476 -0.9952
H -4.5549 -4.4130 1.4576
H -2.2382 -3.8938 0.8094
H -0.1324 2.9972 -1.9524
H -1.2906 5.0994 -1.4309
H -2.9630 6.3434 -0.1102
H -4.2772 5.1884 1.6393
H -3.9359 2.8176 2.0909
H -2.7579 0.8540 2.8495
H -4.0268 0.4591 1.6094
H -2.6721 -0.6616 1.9084
H 2.3215 -2.4932 -0.3581
H 4.5156 -1.7067 -1.0872
*
