! B3LYP 6-31G* SP

* xyz 0 1
C -1.8011 -0.5584 -1.2706
C -2.2439 -1.2663 -0.0105
C -1.5662 -1.0594 1.2167
N -0.4984 -0.1089 1.3358
C 0.8561 -0.5938 1.6280
C 1.6107 -0.9831 0.3373
C 2.8813 -1.8061 0.6905
C 4.0717 -1.4904 -0.2216
N 4.3659 -0.0495 -0.1783
C 5.7277 0.4230 -0.2570
C 6.1333 1.5562 0.4726
C 7.4521 2.0144 0.3959
C 8.3783 1.3509 -0.4106
C 7.9867 0.2293 -1.1463
C 6.6693 -0.2344 -1.0703
C 3.2580 0.9186 -0.1418
C 1.9314 0.2581 -0.5350
S -0.9265 1.5199 1.7685
O -1.3119 1.5656 3.2209
O 0.2465 2.4369 1.5552
C -2.2768 2.0676 0.7795
C -2.0465 2.7899 -0.3980
C -3.1189 3.1772 -1.2074
C -4.4379 2.8456 -0.8509
C -5.5690 3.2481 -1.7149
O -6.7558 2.9974 -1.3695
O -5.3343 3.9092 -2.9176
C -4.6623 2.1195 0.3331
C -3.5884 1.7329 1.1399
N -1.9506 -1.7395 2.3278
C -2.9884 -2.6097 2.3292
C -3.7205 -2.8302 1.1612
C -4.8230 -3.6991 1.1716
C -5.5612 -3.9074 0.0068
C -5.1954 -3.2672 -1.1775
C -4.0988 -2.4010 -1.2014
C -3.3466 -2.1603 -0.0299
H -2.6417 0.0418 -1.6824
H -1.4851 -1.3061 -2.0276
H -0.9515 0.1287 -1.1041
H 1.4348 0.1785 2.1799
H 0.7900 -1.4768 2.3038
H 0.9414 -1.6428 -0.2580
H 2.6506 -2.8917 0.6317
H 3.2022 -1.5986 1.7366
H 3.8448 -1.7957 -1.2658
H 4.9470 -2.0760 0.1333
H 5.4353 2.0790 1.1124
H 7.7570 2.8836 0.9648
H 9.3987 1.7084 -0.4678
H 8.7050 -0.2798 -1.7759
H 6.3809 -1.0960 -1.6583
H 3.4608 1.7503 -0.8530
H 3.1714 1.3463 0.8809
H 2.0022 -0.0594 -1.5986
H 1.1207 1.0119 -0.4835
H -1.0371 3.0385 -0.7009
H -2.9135 3.7300 -2.1150
H -6.1032 4.1852 -3.5164
H -5.6653 1.8385 0.6306
H -3.7788 1.1562 2.0361
H -3.2561 -3.1069 3.2546
H -5.1212 -4.2053 2.0829
H -6.4139 -4.5742 0.0196
H -5.7692 -3.4356 -2.0797
H -3.8529 -1.9275 -2.1420
*
