! B3LYP 6-31G* SP

* xyz 0 1
C -6.8015 2.0809 -0.1784
C -5.3538 2.2506 0.3221
C -4.6717 3.4295 -0.3823
N -4.5214 1.0233 0.2014
C -4.7952 0.0522 1.2799
C -3.7838 -1.0961 1.2129
N -3.8516 -1.7481 -0.1052
S -2.7128 -3.0703 -0.1781
O -2.8301 -3.7563 -1.5111
O -3.0447 -4.0744 0.8911
C -1.0522 -2.5140 0.0437
C -0.4980 -2.4416 1.3283
C 0.8127 -1.9896 1.5049
C 1.5930 -1.6191 0.3996
N 2.9285 -1.1300 0.6110
C 3.9985 -1.2780 -0.3370
O 3.9307 -2.1624 -1.2336
C 5.2291 -0.4651 -0.2103
C 6.4709 -1.0942 -0.3970
C 7.6624 -0.3975 -0.1935
C 7.6408 0.9534 0.1831
C 8.9220 1.6998 0.4607
F 9.1536 1.7126 1.8234
F 9.9983 1.1006 -0.1723
F 8.8255 3.0038 0.0065
C 6.4032 1.5890 0.3722
C 5.1944 0.9044 0.1537
N 3.9537 1.6249 0.2512
O 3.8331 2.5613 1.0683
O 2.9636 1.4284 -0.6836
C 1.0268 -1.6747 -0.8867
C -0.2846 -2.1257 -1.0621
C -3.5655 -0.7770 -1.1738
C -4.5846 0.3636 -1.1205
H -7.2866 1.2069 0.3024
H -6.8355 1.9572 -1.2815
H -7.3951 2.9835 0.0818
H -5.4147 2.5412 1.3958
H -4.6916 3.3093 -1.4853
H -5.1919 4.3774 -0.1270
H -3.6156 3.5107 -0.0483
H -5.8245 -0.3603 1.1928
H -4.6945 0.5411 2.2736
H -2.7646 -0.6938 1.4069
H -4.0310 -1.8303 2.0099
H -1.0828 -2.7255 2.1942
H 1.2245 -1.9342 2.5049
H 3.1570 -0.7089 1.5403
H 6.5200 -2.1425 -0.6671
H 8.6009 -0.9233 -0.3178
H 6.3791 2.6314 0.6658
H 1.5851 -1.3455 -1.7530
H -0.7059 -2.1574 -2.0588
H -2.5409 -0.3554 -1.0676
H -3.6427 -1.2735 -2.1653
H -4.3405 1.0842 -1.9287
H -5.5975 -0.0565 -1.3100
*
