! B3LYP 6-31G* SP

* xyz 0 1
O 2.5933 0.4113 2.4696
C 2.1787 0.2582 1.2892
C 0.7639 -0.1063 1.0700
S -0.2168 0.4932 -0.1598
C -1.6051 -0.2906 0.3864
C -2.9432 -0.2244 -0.2447
C -3.1571 0.5338 -1.4115
C -4.4254 0.5878 -1.9979
C -5.4917 -0.1117 -1.4291
C -5.2924 -0.8677 -0.2716
F -6.3284 -1.5467 0.2799
C -4.0258 -0.9252 0.3190
N -1.3416 -1.0029 1.5058
C -0.0407 -0.9055 1.8905
O 0.4208 -1.5882 3.0143
N 3.0891 0.4619 0.1930
C 4.4489 0.8884 0.3608
C 5.0134 0.8055 -1.0418
O 4.1157 0.0757 -1.8518
C 2.8791 0.0300 -1.1742
H -2.3490 1.0853 -1.8737
H -4.5813 1.1731 -2.8950
H -6.4719 -0.0674 -1.8861
H -3.8938 -1.5174 1.2160
H 1.3961 -1.5951 3.2822
H 4.9849 0.1939 1.0442
H 4.4854 1.9286 0.7509
H 5.1368 1.8256 -1.4663
H 6.0029 0.3007 -1.0341
H 2.1623 0.7079 -1.6823
H 2.4928 -1.0114 -1.1903
*
