! B3LYP 6-31G* SP

* xyz 0 1
N -2.5734 6.0448 -4.3416
C -2.5356 5.1776 -3.5762
C -2.4886 4.0988 -2.6243
C -2.1975 2.7977 -3.0513
C -2.1511 1.7489 -2.1272
C -2.3962 1.9951 -0.7618
O -2.3583 0.9799 0.2049
C -2.0513 -0.3863 -0.0704
C -2.0618 -1.2096 1.2392
O -3.3167 -1.0055 1.8483
C -0.9262 -0.7339 2.2006
C 0.3731 -1.5455 2.0511
N 0.5152 -2.0191 0.6667
S 2.1290 -2.6302 0.3961
O 2.1614 -3.4348 -0.8738
O 2.5285 -3.5060 1.5521
C 3.2664 -1.2846 0.2349
C 2.7717 0.0131 0.0229
C 3.6472 1.0929 -0.1121
C 5.0270 0.8880 -0.0483
Cl 6.1248 2.2454 -0.2201
C 5.5323 -0.4009 0.1428
C 4.6626 -1.4902 0.2793
Cl 5.3657 -3.0918 0.4773
C -0.4853 -3.0598 0.3568
C -1.8882 -2.7174 0.9123
C -2.6878 3.2995 -0.3444
C -2.7341 4.3476 -1.2687
H -2.0065 2.5938 -4.0982
H -1.9254 0.7536 -2.4844
H -2.8161 -0.7924 -0.7686
H -1.0589 -0.4433 -0.5650
H -3.3604 -1.5636 2.6687
H -0.7026 0.3428 2.0356
H -1.2561 -0.8195 3.2590
H 0.3604 -2.4081 2.7564
H 1.2296 -0.8947 2.3329
H 1.7072 0.1957 -0.0420
H 3.2512 2.0881 -0.2696
H 6.6032 -0.5573 0.1794
H -0.1704 -4.0476 0.7637
H -0.5585 -3.1575 -0.7480
H -2.0416 -3.3048 1.8449
H -2.6696 -3.0507 0.1943
H -2.8780 3.5014 0.7022
H -2.9606 5.3503 -0.9264
*
