! B3LYP 6-31G* SP

* xyz 0 1
O 2.4685 -1.6989 1.0367
C 1.9365 -0.6627 0.5514
N 2.7640 0.4558 0.1785
C 4.1985 0.3962 0.0985
C 4.8596 -0.7491 -0.3778
C 6.2544 -0.7732 -0.4705
C 7.0123 0.3571 -0.1198
C 8.5189 0.3136 -0.1736
F 9.0365 1.5760 -0.4082
F 8.9478 -0.5248 -1.1885
F 9.0039 -0.1552 1.0333
C 6.3489 1.4993 0.3600
C 4.9544 1.5229 0.4510
N 0.5023 -0.6081 0.3991
C -0.1938 0.6836 0.2905
C -1.6926 0.5367 0.5857
C -2.3884 -0.5456 -0.2948
C -2.9054 0.0544 -1.6319
C -4.0717 1.0382 -1.4400
C -5.0955 0.5289 -0.4611
C -6.3740 1.1065 -0.4228
C -7.3245 0.6518 0.4956
C -7.0031 -0.3766 1.3851
C -5.7276 -0.9484 1.3637
F -5.4203 -1.9419 2.2344
C -4.7680 -0.4922 0.4516
O -3.4959 -1.0753 0.4432
C -1.4264 -1.7289 -0.6133
C -0.2819 -1.8516 0.3950
H 2.3197 1.3867 0.0201
H 4.3006 -1.6182 -0.6977
H 6.7402 -1.6744 -0.8230
H 6.9086 2.3747 0.6651
H 4.4611 2.4166 0.8125
H 0.2252 1.3985 1.0318
H -0.0478 1.0992 -0.7296
H -1.7952 0.2492 1.6561
H -2.1810 1.5270 0.4913
H -3.2646 -0.7737 -2.2835
H -2.0794 0.5679 -2.1706
H -4.5546 1.2060 -2.4275
H -3.6943 2.0222 -1.0924
H -6.6339 1.9065 -1.1051
H -8.3106 1.0972 0.5181
H -7.7423 -0.7275 2.0937
H -0.9644 -1.5986 -1.6180
H -1.9925 -2.6858 -0.6446
H 0.3513 -2.7163 0.0979
H -0.6834 -2.0457 1.4131
*
