! B3LYP 6-31G* SP

* xyz 0 1
C -2.6622 -3.3160 -1.3854
C -3.1330 -1.9663 -0.9530
O -3.8282 -1.1530 -1.7264
C -4.0623 -0.0592 -1.0374
C -3.5212 -0.1396 0.2090
C -2.9196 -1.3838 0.2976
C -2.1219 -1.9529 1.4369
C -0.6724 -1.6022 1.2807
O -0.3230 -0.3905 1.3350
N 0.3022 -2.6366 1.0726
C 1.6933 -2.3824 0.8394
N 2.2151 -1.1561 0.6239
C 3.5611 -1.2060 0.4179
C 4.3393 0.0142 0.1048
C 3.7364 1.0382 -0.6444
C 4.4563 2.1830 -0.9881
C 5.7818 2.3297 -0.5782
C 6.4042 1.3280 0.1897
C 7.8307 1.4815 0.6625
F 8.5789 0.3964 0.2344
F 7.8543 1.5304 2.0470
F 8.4138 2.6391 0.1694
C 5.6738 0.1723 0.5351
F 6.2544 -0.7735 1.3207
C 4.1097 -2.4917 0.4549
S 2.8664 -3.5824 0.7603
C -3.6520 0.9242 1.0947
O -3.1569 0.8545 2.2531
N -4.3376 2.0437 0.6799
C -4.5350 3.1688 1.6092
C -4.9107 2.0835 -0.5801
O -5.5962 3.0880 -0.9270
N -4.7480 1.0366 -1.4610
C -5.3562 1.0699 -2.7968
H -1.5676 -3.4040 -1.2196
H -2.8766 -3.4638 -2.4649
H -3.1878 -4.0993 -0.8018
H -2.2541 -3.0549 1.4618
H -2.4954 -1.5656 2.4065
H -0.0072 -3.6338 1.1114
H 2.7124 0.9422 -0.9857
H 3.9857 2.9587 -1.5800
H 6.3131 3.2304 -0.8610
H 5.1421 -2.7580 0.2719
H -5.4881 3.0317 2.1617
H -4.5643 4.1366 1.0643
H -3.6992 3.2451 2.3376
H -6.4472 0.8808 -2.7143
H -5.1911 2.0610 -3.2720
H -4.9103 0.3028 -3.4666
*
