! B3LYP 6-31G* SP

* xyz 0 1
C 1.2419 1.1422 -1.8948
C 0.5073 1.6649 -0.6796
C -0.3107 0.8078 0.0946
N -0.4777 -0.5727 -0.2488
C 0.1522 -1.6066 0.5719
C 1.6294 -1.6032 0.3435
C 2.5382 -0.7537 0.9749
C 3.8288 -0.8747 0.4514
C 4.9544 -0.1549 0.8608
C 6.1803 -0.3886 0.2136
F 7.2853 0.2979 0.5953
C 6.2668 -1.3297 -0.8318
C 5.1286 -2.0434 -1.2388
F 5.2007 -2.9440 -2.2500
C 3.9254 -1.7977 -0.5804
S 2.4170 -2.4763 -0.8730
S -1.6491 -1.0147 -1.4497
O -1.0497 -2.0356 -2.3764
O -2.0399 0.1907 -2.2587
C -3.0754 -1.6615 -0.6486
C -3.8919 -0.8101 0.1041
C -5.0159 -1.3137 0.7651
C -5.3368 -2.6810 0.6840
C -6.5248 -3.2206 1.3814
O -7.2670 -2.4604 2.0605
O -6.8351 -4.5754 1.2937
C -4.5088 -3.5316 -0.0694
C -3.3847 -3.0252 -0.7285
N -0.9383 1.2803 1.2031
C -0.8257 2.5672 1.6103
C -0.0361 3.4654 0.8884
C 0.0862 4.7980 1.3113
C 0.8812 5.6916 0.5932
C 1.5583 5.2639 -0.5487
C 1.4451 3.9400 -0.9816
C 0.6448 3.0174 -0.2716
H 2.3364 1.2583 -1.7473
H 0.9251 1.7077 -2.7960
H 1.0488 0.0698 -2.0919
H -0.2527 -2.6084 0.3140
H -0.0672 -1.4231 1.6458
H 2.2672 -0.0588 1.7600
H 4.8866 0.5721 1.6606
H 7.2145 -1.5008 -1.3258
H -3.6559 0.2438 0.1821
H -5.6308 -0.6334 1.3407
H -7.6465 -4.9552 1.7665
H -4.7262 -4.5896 -0.1476
H -2.7563 -3.6995 -1.2959
H -1.3527 2.8854 2.5013
H -0.4313 5.1470 2.1972
H 0.9737 6.7183 0.9232
H 2.1746 5.9611 -1.1017
H 1.9884 3.6533 -1.8715
*
