! B3LYP 6-31G* SP

* xyz 0 1
C -0.8692 -2.1951 -1.9466
C -0.6116 -0.9194 -1.1463
N -1.1852 -1.0156 0.2097
C -0.7280 -2.0532 1.1021
O -1.5630 -2.6780 1.8112
C 0.6999 -2.4292 1.1785
C 1.0522 -3.7879 1.1330
C 2.3925 -4.1726 1.1842
C 3.3920 -3.2068 1.2943
C 3.0553 -1.8533 1.3647
C 1.7060 -1.4483 1.3166
O 1.3274 -0.0982 1.4322
C 2.2173 1.0166 1.5095
C 2.8026 1.3228 0.1575
C 1.9601 1.7036 -0.8991
C 2.4914 1.9780 -2.1624
C 3.8700 1.8847 -2.3781
Cl 4.5358 2.2289 -3.9639
C 4.7175 1.5215 -1.3264
C 4.1880 1.2450 -0.0620
C -2.2649 -0.1102 0.6571
C -3.5633 -0.3211 -0.1620
C -4.4713 0.9260 -0.1929
C -4.3305 1.7703 1.0795
C -2.8815 2.2838 1.2820
N -2.7568 3.6561 0.7843
C -1.8150 1.3624 0.6321
H -1.9547 -2.4244 -1.9730
H -0.3284 -3.0537 -1.4971
H -0.5070 -2.0601 -2.9874
H 0.4814 -0.7434 -1.0872
H -1.0506 -0.0688 -1.7067
H 0.2881 -4.5498 1.0377
H 2.6566 -5.2211 1.1367
H 4.4309 -3.5079 1.3353
H 3.8538 -1.1363 1.4730
H 1.6384 1.9019 1.8466
H 2.9992 0.8386 2.2786
H 0.8924 1.7857 -0.7446
H 1.8313 2.2638 -2.9714
H 5.7860 1.4541 -1.4869
H 4.8592 0.9720 0.7424
H -2.5091 -0.3354 1.7211
H -4.1247 -1.1727 0.2809
H -3.3341 -0.5974 -1.2114
H -5.5299 0.6097 -0.3139
H -4.2081 1.5542 -1.0723
H -4.6248 1.1442 1.9510
H -5.0431 2.6230 1.0397
H -2.6925 2.3037 2.3790
H -2.8979 3.6633 -0.2524
H -1.7844 3.9938 0.9713
H -1.6377 1.6802 -0.4169
H -0.8579 1.4720 1.1843
*
