! B3LYP 6-31G* SP

* xyz 0 1
C 3.7653 -2.5454 1.0993
N 3.8453 -1.3061 0.3022
C 3.2542 -0.1614 0.7682
O 2.6376 -0.1955 1.8669
C 3.3438 1.0445 0.0322
C 2.7537 2.2878 0.4344
C 1.9186 2.4738 1.6883
C 0.5525 1.8677 1.5293
O -0.1174 2.1155 0.4895
N -0.0035 1.0623 2.5803
C -1.2250 0.3240 2.4531
N -1.9631 0.2679 1.3240
C -3.0634 -0.5213 1.4721
C -4.0043 -0.7504 0.3492
C -3.5173 -0.7169 -0.9665
C -4.3772 -0.9119 -2.0454
C -5.7349 -1.1519 -1.8323
F -6.5435 -1.2995 -2.9123
C -6.2502 -1.2147 -0.5213
C -7.7321 -1.4205 -0.2838
F -8.3570 -0.1891 -0.2203
F -7.9514 -2.0990 0.9022
F -8.3050 -2.1637 -1.3009
C -5.3811 -0.9735 0.5660
F -5.8878 -0.8926 1.8236
C -3.1867 -1.1138 2.7322
S -1.8860 -0.6158 3.6762
C 2.9119 3.4129 -0.3912
C 3.6444 3.3220 -1.5652
N 4.1989 2.1431 -1.9272
C 4.0726 1.0085 -1.1831
N 4.6570 -0.1528 -1.6150
C 5.4406 -0.1552 -2.8656
C 4.5762 -1.2895 -0.8557
O 5.1862 -2.3338 -1.2245
H 2.7920 -2.6212 1.6300
H 4.5895 -2.5637 1.8431
H 3.8334 -3.4493 0.4571
H 2.4506 2.0666 2.5721
H 1.7809 3.5530 1.9163
H 0.5193 0.9844 3.4813
H -2.4665 -0.5401 -1.1616
H -3.9887 -0.8708 -3.0550
H -3.9548 -1.8061 3.0484
H 2.4676 4.3653 -0.1284
H 3.7704 4.1916 -2.1963
H 6.4595 0.2390 -2.6677
H 5.5248 -1.1731 -3.3014
H 4.9501 0.4685 -3.6432
*
