! B3LYP 6-31G* SP

* xyz -1 1
O -6.2215 5.8755 -2.2664
C -6.2484 4.6190 -2.1771
O -7.1787 3.9102 -2.9282
C -5.3053 3.9073 -1.2868
C -5.3467 2.5057 -1.1832
C -4.4560 1.8311 -0.3433
C -3.5151 2.5458 0.4074
S -2.3780 1.6833 1.4358
O -3.0951 0.5764 2.1577
O -1.7875 2.6106 2.4613
N -1.1105 1.0243 0.4512
C -0.1613 1.9294 -0.2003
C 1.2494 1.5028 0.0986
C 1.8710 0.5261 -0.6870
C 3.1453 0.0604 -0.3610
C 3.8378 0.5664 0.7621
C 5.2196 0.0537 1.1571
F 5.1244 -0.5264 2.4146
F 6.0818 1.1333 1.2444
C 5.8388 -0.9295 0.1364
C 6.8906 -1.8858 0.6808
C 5.5068 -2.4042 0.3176
C 3.1961 1.5484 1.5571
Cl 3.9470 2.2198 3.0039
C 1.9157 2.0044 1.2225
C -1.2540 -0.3127 -0.0408
N -1.8516 -0.4777 -1.2493
C -2.0205 -1.6889 -1.8245
C -1.5620 -2.8383 -1.1835
C -1.7296 -4.0924 -1.7915
C -1.2653 -5.2457 -1.1618
C -0.6301 -5.1572 0.0748
C -0.4572 -3.9159 0.6928
C -0.9235 -2.7279 0.0795
C -0.7686 -1.4412 0.6793
C -0.0801 -1.3011 2.0364
F -0.7622 -2.0471 2.9798
F 1.2211 -1.7597 1.9416
F -0.0291 -0.0038 2.5025
C -3.4615 3.9408 0.3025
C -4.3520 4.6184 -0.5356
H -6.0653 1.9297 -1.7520
H -4.4966 0.7508 -0.2819
H -0.3366 1.9280 -1.2976
H -0.3208 2.9737 0.1439
H 1.3581 0.1079 -1.5444
H 3.5703 -0.7056 -0.9935
H 6.0227 -0.5957 -0.9083
H 7.0866 -1.8489 1.7730
H 7.6771 -2.1693 -0.0496
H 4.8690 -2.6630 1.1899
H 5.4756 -2.9833 -0.6291
H 1.4302 2.7402 1.8521
H -2.5089 -1.7490 -2.7893
H -2.2182 -4.1799 -2.7551
H -1.3959 -6.2107 -1.6350
H -0.2680 -6.0556 0.5585
H 0.0467 -3.9102 1.6476
H -2.7289 4.5057 0.8644
H -4.2911 5.6978 -0.5980
*
