! B3LYP 6-31G* SP

* xyz 0 1
C 0.7556 0.3984 -2.0260
C 1.2603 -0.5319 -0.9456
C 0.7963 -0.4094 0.3857
N -0.2241 0.5334 0.7414
C -1.6291 0.2648 0.4215
C -2.0715 -1.0271 1.0518
C -2.5108 -1.0496 2.3992
C -2.8713 -2.2614 3.0159
C -2.7705 -3.4287 2.2637
C -3.0393 -4.7426 2.5821
Cl -3.6241 -5.3701 4.1088
C -2.7533 -5.4783 1.4386
N -2.3231 -4.6603 0.4504
C -2.3387 -3.4176 0.9631
C -1.9759 -2.2345 0.3234
S 0.2031 1.9233 1.6888
O 1.6266 1.8090 2.1596
O -0.6882 2.0039 2.8971
C 0.0380 3.3701 0.7012
C -1.0697 4.2137 0.8525
C -1.1998 5.3538 0.0540
C -0.2269 5.6614 -0.9144
C -0.3590 6.8665 -1.7613
O -1.3234 7.6606 -1.5958
O 0.5864 7.1394 -2.7467
C 0.8764 4.8041 -1.0676
C 1.0071 3.6684 -0.2631
N 1.2929 -1.2185 1.3585
C 2.2185 -2.1749 1.1082
C 2.6895 -2.3727 -0.1913
C 3.6309 -3.3787 -0.4567
C 4.0961 -3.5777 -1.7562
C 3.6229 -2.7813 -2.7990
C 2.6855 -1.7764 -2.5486
C 2.2072 -1.5487 -1.2390
H 0.1005 -0.1623 -2.7252
H 1.6115 0.8327 -2.5841
H 0.1854 1.2584 -1.6218
H -1.7623 0.2187 -0.6796
H -2.2733 1.0954 0.7831
H -2.5713 -0.1295 2.9668
H -3.2108 -2.2826 4.0425
H -2.8510 -6.5513 1.3369
H -2.0382 -4.9418 -0.5147
H -1.6205 -2.2496 -0.6993
H -1.8336 3.9917 1.5859
H -2.0627 5.9918 0.1934
H 0.5092 7.9657 -3.3289
H 1.6402 5.0097 -1.8073
H 1.8617 3.0172 -0.3977
H 2.5761 -2.7881 1.9265
H 4.0011 -4.0143 0.3377
H 4.8221 -4.3550 -1.9568
H 3.9825 -2.9445 -3.8063
H 2.3392 -1.1927 -3.3902
*
