! B3LYP 6-31G* SP

* xyz 0 1
C -0.7390 0.8480 -3.8006
C -1.0722 -0.0757 -2.6491
C -0.1734 -0.2166 -1.5705
N 1.0318 0.5549 -1.4910
C 1.0094 1.9551 -1.0514
C 0.1883 2.1301 0.2024
C 0.4840 1.3802 1.3512
C -0.2786 1.5336 2.5082
C -1.3254 2.4579 2.5443
F -2.0350 2.6053 3.6915
C -1.6264 3.2393 1.4122
C -2.7054 4.2956 1.4956
F -2.9614 4.8698 0.2616
F -2.2998 5.2881 2.3701
F -3.8786 3.7313 1.9629
C -0.8622 3.0654 0.2413
S 2.5493 -0.2306 -1.7883
O 2.3148 -1.5952 -2.3762
O 3.3456 0.5765 -2.7760
C 3.4346 -0.3893 -0.2767
C 4.3675 0.5855 0.0992
C 5.0548 0.4717 1.3105
C 4.8155 -0.6203 2.1661
C 5.5481 -0.7499 3.4452
O 6.3556 0.1481 3.8112
O 5.3559 -1.8674 4.2566
C 3.8680 -1.5890 1.7882
C 3.1803 -1.4713 0.5763
N -0.4371 -1.0974 -0.5742
C -1.5660 -1.8463 -0.5239
C -1.7395 -2.8042 0.6283
C -1.2452 -2.3134 1.9852
C -2.7328 -2.3385 1.6844
C -2.5196 -1.7344 -1.5591
C -3.6990 -2.5084 -1.5615
C -4.6316 -2.3781 -2.5908
C -4.4106 -1.4741 -3.6257
C -3.2498 -0.7007 -3.6475
C -2.2779 -0.8250 -2.6271
H -1.3649 1.7612 -3.7383
H 0.3278 1.1465 -3.8087
H -0.9136 0.3371 -4.7689
H 0.6152 2.5869 -1.8722
H 2.0402 2.3059 -0.8419
H 1.2970 0.6686 1.3487
H -0.0488 0.9418 3.3854
H -1.0710 3.6651 -0.6367
H 4.5604 1.4369 -0.5420
H 5.7744 1.2370 1.5763
H 5.8562 -1.9655 5.1329
H 3.6558 -2.4366 2.4296
H 2.4456 -2.2202 0.3068
H -1.6891 -3.9030 0.4588
H -0.9172 -3.1151 2.6805
H -0.8234 -1.2873 2.0273
H -3.2831 -3.1608 2.1879
H -3.1827 -1.3336 1.5192
H -3.9097 -3.2193 -0.7732
H -5.5329 -2.9772 -2.5825
H -5.1416 -1.3742 -4.4196
H -3.1316 -0.0049 -4.4664
*
