! B3LYP def2-TZVP SP

* xyz 0 1
C 4.7984 -0.6933 -0.2443
C 4.3840 0.7825 -0.3046
N 2.9569 0.8849 -0.6324
C 1.9267 0.5848 0.3193
O 2.2265 0.3045 1.5123
N 0.5531 0.5930 -0.0947
C -0.5384 0.2233 0.8103
C -1.8822 0.6474 0.2440
C -2.4989 -0.0633 -0.8019
C -3.7213 0.3631 -1.3288
C -4.3593 1.5047 -0.8168
C -5.6579 1.9917 -1.4088
F -5.3879 2.9045 -2.4113
F -6.3826 0.9391 -1.9404
F -6.4334 2.6022 -0.4390
C -3.7251 2.2402 0.1972
C -2.5022 1.8143 0.7234
C -0.5225 -1.2467 1.1998
N -0.9953 -1.5498 2.4428
C -1.0621 -2.8205 2.9156
C -0.6467 -3.8821 2.1179
C -0.1670 -3.6225 0.8363
C -0.1000 -2.3102 0.3542
Br 0.5592 -2.0990 -1.4391
C 5.2297 1.5550 -1.3322
F 5.0780 1.0109 -2.5966
F 6.5669 1.5083 -0.9787
F 4.8300 2.8793 -1.3616
H 4.6046 -1.1942 -1.2172
H 5.8765 -0.7859 0.0037
H 4.2215 -1.2195 0.5458
H 4.5628 1.2454 0.6916
H 2.6672 1.1855 -1.5909
H 0.3327 0.8811 -1.0756
H -0.3789 0.7950 1.7525
H -2.0411 -0.9482 -1.2161
H -4.1665 -0.2013 -2.1379
H -4.1748 3.1471 0.5828
H -2.0386 2.4003 1.5085
H -1.4418 -3.0049 3.9113
H -0.7002 -4.8981 2.4873
H 0.1502 -4.4486 0.2122
*
