! B3LYP 6-31G* SP

* xyz 0 1
C -2.8673 -4.2400 0.1388
O -1.8811 -3.2237 0.0075
C -2.2044 -1.8656 -0.0553
N -3.5021 -1.4353 0.0067
C -3.8399 -0.1056 -0.0613
C -5.2618 0.2835 0.0429
C -6.0311 -0.2483 1.0922
C -7.3760 0.1019 1.2345
C -7.9707 0.9775 0.3253
C -7.2250 1.4972 -0.7348
C -5.8757 1.1538 -0.8882
Cl -5.0220 1.7684 -2.3010
C -2.8237 0.8720 -0.1722
C -1.5109 0.4184 -0.2354
N -0.3893 1.1495 -0.3555
C 0.5898 0.2045 -0.3660
C 2.0247 0.5378 -0.4967
C 3.0920 -0.1654 0.0388
Cl 3.0038 -1.5778 1.0847
C 4.2246 0.5583 -0.3346
C 5.6819 0.2635 0.0077
C 6.0732 -1.1379 -0.5017
C 5.8922 0.3493 1.5318
C 6.6071 1.2992 -0.6699
N 3.8338 1.6343 -1.0517
N 2.5147 1.6148 -1.1483
C 1.7557 2.6393 -1.8579
N 0.1164 -1.0643 -0.2618
C -1.2095 -0.9033 -0.1797
H -3.4379 -4.0967 1.0809
H -3.5609 -4.2110 -0.7282
H -2.3686 -5.2304 0.1675
H -5.5847 -0.9243 1.8116
H -7.9573 -0.3057 2.0514
H -9.0134 1.2460 0.4360
H -7.7018 2.1592 -1.4465
H -3.0465 1.9313 -0.1921
H 5.8734 -1.2247 -1.5918
H 7.1545 -1.3291 -0.3285
H 5.5081 -1.9348 0.0213
H 5.5722 1.3434 1.9127
H 6.9645 0.2057 1.7871
H 5.3144 -0.4310 2.0665
H 6.3720 2.3273 -0.3178
H 6.4868 1.2694 -1.7749
H 7.6735 1.0918 -0.4338
H 1.0338 2.1630 -2.5544
H 1.2110 3.2745 -1.1287
H 2.4414 3.2830 -2.4489
H 0.6460 -1.9632 -0.2823
*
