! B3LYP 6-31G* SP

* xyz 0 1
O 3.1671 0.2895 -1.1482
C 2.0884 0.0328 -0.5456
N 2.0505 -1.0679 0.3773
C 3.2022 -1.5566 1.0881
C 4.2803 -0.7145 1.4128
C 5.3680 -1.2292 2.1232
N 5.3750 -2.5313 2.5119
C 4.3386 -3.3636 2.2290
C 3.2317 -2.8898 1.5200
N 0.9065 0.8305 -0.8066
C 0.9289 1.8387 -1.8800
C 0.6549 3.2161 -1.2948
C -0.6223 3.2113 -0.5031
C -1.3469 4.4061 -0.3602
C -2.4960 4.4458 0.4313
C -2.9205 3.3006 1.1043
C -2.2002 2.1104 0.9845
C -1.0522 2.0450 0.1720
C -0.2785 0.7359 0.0787
C -1.1954 -0.3979 -0.3555
C -1.4858 -1.4474 0.5345
C -2.3375 -2.4885 0.1559
C -2.9511 -2.4834 -1.1073
C -3.8295 -3.6297 -1.5417
F -3.0609 -4.5595 -2.2176
F -4.8349 -3.1795 -2.3809
F -4.4196 -4.2415 -0.4488
C -2.6697 -1.4326 -1.9949
C -1.8151 -0.3933 -1.6177
H 1.1685 -1.6165 0.4515
H 4.2762 0.3325 1.1413
H 6.2036 -0.5892 2.3741
H 4.3721 -4.3940 2.5564
H 2.4086 -3.5586 1.3006
H 0.1658 1.5997 -2.6456
H 1.9038 1.8667 -2.4104
H 1.4928 3.5071 -0.6248
H 0.5965 3.9538 -2.1253
H -1.0165 5.3104 -0.8569
H -3.0505 5.3696 0.5333
H -3.8052 3.3365 1.7269
H -2.5378 1.2362 1.5274
H 0.0840 0.5456 1.1139
H -1.0455 -1.4670 1.5238
H -2.5161 -3.2972 0.8529
H -3.1157 -1.4124 -2.9815
H -1.6606 0.4204 -2.3081
*
