! B3LYP 6-31G* SP

* xyz 0 1
O 5.3441 3.1343 1.6571
C 4.9798 1.9269 1.6760
O 5.5026 1.0726 2.6442
C 4.0078 1.4214 0.6819
C 3.5769 0.0839 0.7283
C 2.6548 -0.3961 -0.2061
C 2.1510 0.4507 -1.2000
S 0.9638 -0.1519 -2.3504
O 1.2697 -1.5882 -2.6748
O 1.0286 0.6397 -3.6270
N -0.6277 -0.0287 -1.6677
C -1.3111 1.2643 -1.6037
C -1.5441 1.6592 -0.1692
C -0.5918 2.4319 0.5199
C -0.7827 2.7486 1.8684
C -1.9218 2.2926 2.5396
C -2.8717 1.5197 1.8632
C -2.6854 1.2027 0.5142
C -1.3143 -1.2208 -1.2756
N -2.2233 -1.7832 -2.1167
C -2.9090 -2.9095 -1.7848
C -2.7052 -3.5202 -0.5348
C -3.4231 -4.7902 -0.1547
F -4.5483 -4.9835 -0.9371
F -2.5696 -5.8640 -0.3242
F -3.8197 -4.7329 1.1701
C -1.7579 -2.9600 0.3364
C -1.0645 -1.8053 -0.0284
F -0.1782 -1.2474 0.8334
C 2.5791 1.7828 -1.2557
C 3.4985 2.2672 -0.3203
H 6.1657 1.4084 3.3320
H 3.9478 -0.5924 1.4884
H 2.3302 -1.4283 -0.1513
H -2.2790 1.2008 -2.1488
H -0.7075 2.0477 -2.1133
H 0.2956 2.7908 0.0149
H -0.0480 3.3479 2.3936
H -2.0674 2.5378 3.5839
H -3.7509 1.1632 2.3853
H -3.4228 0.5922 0.0053
H -3.6103 -3.3237 -2.4976
H -1.5593 -3.4152 1.2993
H 2.1905 2.4513 -2.0130
H 3.8080 3.3033 -0.3802
*
