! B3LYP 6-31G* SP

* xyz 0 1
O -6.1634 -1.9388 -1.2856
C -4.8663 -1.4742 -1.0701
C -4.6840 -0.2154 -0.4918
C -3.3940 0.2852 -0.2535
C -2.2648 -0.4824 -0.6327
C -2.4598 -1.7517 -1.2021
C -3.7507 -2.2477 -1.4243
O -3.9279 -3.5071 -1.9957
C -0.8466 0.0027 -0.3763
N -0.6071 1.4107 -0.7600
C 0.5955 2.0547 -0.2776
S 0.7618 3.6890 -0.2832
N 1.6697 1.2675 0.2424
C 1.8140 1.0616 1.6822
C 2.2402 -0.3783 1.9890
C 3.6236 -0.6769 1.4710
C 4.7543 -0.2388 2.1809
C 6.0382 -0.4978 1.6909
C 6.2031 -1.1907 0.4871
Cl 7.8144 -1.5177 -0.1240
C 5.0813 -1.6234 -0.2295
C 3.7960 -1.3660 0.2582
C -1.5827 2.1440 -1.5872
C -2.7428 2.6741 -0.7283
C -3.2269 1.6683 0.3300
H -6.3493 -2.8433 -1.7020
H -5.5548 0.3737 -0.2298
H -1.6064 -2.3604 -1.4753
H -3.1394 -4.0865 -2.2606
H -0.6641 -0.1167 0.7124
H -0.1093 -0.6371 -0.9093
H 2.5107 1.1447 -0.3649
H 0.8451 1.2565 2.1924
H 2.5597 1.7802 2.0859
H 1.5007 -1.0854 1.5535
H 2.2224 -0.5323 3.0901
H 4.6400 0.3043 3.1122
H 6.9033 -0.1589 2.2476
H 5.2035 -2.1578 -1.1630
H 2.9363 -1.6990 -0.3109
H -1.9789 1.4750 -2.3823
H -1.1019 2.9839 -2.1315
H -3.5903 2.9403 -1.3973
H -2.4195 3.6034 -0.2111
H -4.1830 2.0350 0.7636
H -2.4999 1.6297 1.1703
*
