! B3LYP 6-31G* SP

* xyz 0 1
O 1.7150 0.9181 -1.2273
C 1.2519 -0.0757 -0.6032
N 1.9419 -1.3334 -0.6393
C 3.2373 -1.4982 -1.2944
C 4.3184 -0.8369 -0.4838
C 4.9138 0.3574 -0.9233
C 5.9017 0.9770 -0.1514
C 6.2987 0.4120 1.0642
F 7.2560 1.0149 1.8115
C 5.7066 -0.7731 1.5103
C 4.7183 -1.3955 0.7414
C -0.0590 0.0434 0.1267
C -1.2374 -0.1656 -0.8565
C -2.5135 0.2175 -0.1794
C -2.5694 1.0036 0.9526
N -3.8472 1.2419 1.3246
C -4.6035 0.6249 0.3944
C -5.9953 0.5922 0.3231
C -6.5830 -0.1068 -0.7479
C -5.7765 -0.7498 -1.7142
C -4.3736 -0.7026 -1.6191
C -3.8213 -0.0061 -0.5462
C -1.3370 1.4336 1.6898
N -0.1498 1.3536 0.8143
H 1.5041 -2.1685 -0.1888
H 3.4678 -2.5819 -1.3854
H 3.1920 -1.0875 -2.3267
H 4.6131 0.8097 -1.8601
H 6.3576 1.8963 -0.4957
H 6.0111 -1.2093 2.4530
H 4.2626 -2.3103 1.1000
H -0.0963 -0.7616 0.8959
H -1.2840 -1.2297 -1.1738
H -1.1099 0.4751 -1.7560
H -4.1755 1.7881 2.1520
H -6.6057 1.0902 1.0653
H -7.6610 -0.1507 -0.8328
H -6.2413 -1.2828 -2.5335
H -3.7476 -1.1922 -2.3539
H -1.4647 2.4772 2.0491
H -1.1924 0.7774 2.5744
H -0.2230 2.1143 0.0968
*
