! B3LYP 6-31G* SP

* xyz 0 1
O 5.8608 0.3367 -1.8769
C 5.4129 1.2891 -1.1820
O 6.0011 2.5445 -1.2910
C 4.2786 1.0740 -0.2566
C 3.7597 2.1452 0.4926
C 2.6904 1.9438 1.3713
C 2.1252 0.6694 1.5160
S 0.7457 0.4134 2.5820
O 0.9131 -0.8791 3.3326
O 0.6705 1.5301 3.5859
N -0.7050 0.3631 1.6213
C -1.7761 1.3427 1.8191
C -1.6548 2.4756 0.8337
C -2.4779 2.5236 -0.3031
C -2.3526 3.5678 -1.2243
C -1.3930 4.5806 -1.0234
O -1.2267 5.6561 -1.9109
C -2.0025 5.8857 -3.0835
F -3.3345 6.0271 -2.7481
F -1.8479 4.8359 -3.9723
F -1.5684 7.0509 -3.6864
C -0.5697 4.5240 0.1070
C -0.6989 3.4831 1.0303
C -0.7890 -0.5833 0.5484
C -0.7820 -1.9570 0.8122
C -0.8504 -2.8780 -0.2500
C -0.8651 -4.2808 -0.0341
C -0.8073 -4.8801 1.3568
C -1.7936 -6.0114 1.6375
C -2.0452 -4.6357 2.2157
C -0.8489 -5.1424 -1.1455
C -0.8871 -4.6347 -2.4471
C -0.9219 -3.2596 -2.6635
C -0.8976 -2.3775 -1.5760
C -0.9108 -0.9940 -1.7898
N -0.8590 -0.1412 -0.7358
C 2.6356 -0.4001 0.7695
C 3.7035 -0.2014 -0.1105
H 6.7808 2.7022 -1.9193
H 4.1762 3.1406 0.3982
H 2.3055 2.7845 1.9341
H -2.7624 0.8374 1.7198
H -1.7429 1.7471 2.8528
H -3.2185 1.7516 -0.4783
H -3.0051 3.5759 -2.0856
H 0.1720 5.2955 0.2750
H -0.0614 3.4715 1.9039
H -0.7309 -2.2875 1.8370
H 0.1592 -4.9274 1.9034
H -1.4565 -6.7493 2.3918
H -2.5121 -6.2725 0.8289
H -2.8775 -4.0848 1.7243
H -1.8365 -4.5549 3.3051
H -0.8076 -6.2155 -1.0055
H -0.8849 -5.3120 -3.2912
H -0.9519 -2.8857 -3.6814
H -0.9581 -0.5890 -2.7951
H 2.2034 -1.3878 0.8634
H 4.0776 -1.0463 -0.6757
*
