! B3LYP 6-31G* SP

* xyz 0 1
C 3.9526 -2.0313 -2.6169
O 3.1063 -1.9026 -1.4812
C 3.5708 -1.4711 -0.2335
N 4.8897 -1.1787 -0.0494
C 5.3763 -0.7791 1.1553
C 4.5209 -0.6670 2.2523
C 3.1657 -0.9594 2.0945
C 2.6759 -1.3484 0.8417
C 1.2447 -1.6471 0.6709
O 0.8056 -2.7417 1.1168
N 0.3513 -0.7161 0.0128
C -0.8234 -1.2957 -0.6950
C -1.1092 -0.6886 -2.0903
C -2.6152 -0.3663 -2.1419
C -3.0826 -0.5924 -0.7531
C -4.3660 -0.3526 -0.2550
F -5.3322 0.1689 -1.0509
C -4.6400 -0.6602 1.0860
C -3.6380 -1.2164 1.9023
Cl -3.9853 -1.6010 3.5772
C -2.3577 -1.4578 1.3797
C -2.0959 -1.1107 0.0500
C 0.6053 0.7415 0.2052
C 1.5224 1.3134 -0.8539
N 2.0649 2.6243 -0.6919
O 1.8346 0.6407 -1.8720
C -0.6616 1.5588 0.4213
C -1.2394 2.3477 -0.5955
C -2.4207 3.0566 -0.3579
C -3.0335 2.9998 0.8951
C -2.4600 2.2430 1.9179
C -1.2789 1.5330 1.6863
H 4.7553 -2.7707 -2.4113
H 4.4022 -1.0474 -2.8687
H 3.3517 -2.3830 -3.4804
H 6.4290 -0.5546 1.2626
H 4.9045 -0.3554 3.2152
H 2.4966 -0.8695 2.9416
H -0.6846 -2.3908 -0.8408
H -0.5363 0.2321 -2.2821
H -0.8451 -1.4155 -2.8894
H -3.1420 -1.0594 -2.8325
H -2.7930 0.6865 -2.4496
H -5.6271 -0.4736 1.4889
H -1.5827 -1.8845 2.0018
H 1.1770 0.8652 1.1519
H 1.8320 3.1966 0.1498
H 2.7032 3.0238 -1.4151
H -0.7858 2.4189 -1.5743
H -2.8625 3.6497 -1.1480
H -3.9507 3.5453 1.0744
H -2.9345 2.2000 2.8896
H -0.8548 0.9427 2.4894
*
