! B3LYP 6-31G* SP

* xyz 0 1
C -1.9381 -0.8726 2.4904
N -3.1005 -0.5403 1.6734
N -4.0721 0.2659 2.0896
C -4.9426 0.3725 1.0671
C -4.5257 -0.3561 -0.0018
C -3.3410 -0.9475 0.3991
C -2.4272 -1.8063 -0.4285
C -1.4196 -0.9584 -1.1337
O -1.7415 -0.3752 -2.2034
N -0.1154 -0.7987 -0.5539
C 0.9012 -0.1402 -1.0369
S 0.9458 0.6873 -2.5057
C 2.5520 1.1487 -2.3298
C 3.0187 0.6501 -1.1155
C 4.4097 0.8764 -0.6768
C 5.4664 0.3304 -1.4162
C 6.7817 0.5015 -0.9893
C 7.0598 1.2374 0.1652
F 8.3510 1.3403 0.5701
C 6.0134 1.8453 0.8933
C 6.2862 2.6129 2.1683
F 6.0811 1.7795 3.2509
F 7.5848 3.0906 2.2087
F 5.4363 3.6987 2.2697
C 4.6832 1.6367 0.4726
F 3.6495 2.1679 1.1791
N 2.0998 -0.0766 -0.4002
C 2.3713 -0.7769 0.8673
O 2.1453 -2.1643 0.7372
P 3.4384 -2.8759 -0.1225
O 3.3829 -2.4618 -1.5751
O 4.9299 -2.4190 0.5394
O 3.2885 -4.5584 -0.0279
C -5.2645 -0.3595 -1.1766
O -4.8594 -1.0020 -2.1848
N -6.4398 0.3563 -1.2112
C -7.2448 0.3847 -2.4436
C -6.8346 1.1047 -0.1139
O -7.8998 1.7825 -0.1671
N -6.0770 1.1234 1.0370
C -6.5104 1.8920 2.2127
H -1.8309 -1.9749 2.5667
H -2.0566 -0.4576 3.5140
H -1.0244 -0.4377 2.0366
H -1.9076 -2.5418 0.2208
H -3.0117 -2.3932 -1.1680
H 3.1214 1.7355 -3.0358
H 5.2681 -0.2507 -2.3082
H 7.5913 0.0528 -1.5511
H 3.3829 -0.5618 1.2702
H 1.6684 -0.3892 1.6353
H 4.8934 -2.7289 1.4790
H 4.0515 -4.9108 -0.5504
H -7.1089 -0.5427 -3.0396
H -8.3294 0.4493 -2.2108
H -6.9502 1.2599 -3.0602
H -5.6861 2.0209 2.9448
H -7.3521 1.3667 2.7119
H -6.8423 2.9080 1.9078
*
