! B3LYP 6-31G* SP

* xyz 0 1
C -5.1531 0.2705 -1.7072
C -4.2813 -0.7298 -1.4909
C -4.3055 -1.9171 -2.4205
C -3.2770 -0.6651 -0.3370
C -4.0348 -0.6838 1.0338
C -3.5739 0.3830 2.0413
C -3.3935 1.7194 1.3742
C -3.9067 2.9777 2.0188
C -2.7731 1.7838 0.1868
C -2.2884 0.5402 -0.5213
C -0.8012 0.3022 -0.2045
C 0.1467 1.1418 -0.8452
O -0.2758 2.1211 -1.7464
C 1.5155 1.0065 -0.5848
C 1.9773 0.0576 0.3293
C 3.4542 -0.1029 0.5775
C 4.0625 -1.0926 -0.4260
C 5.5429 -1.3900 -0.1415
C 6.4581 -0.2018 -0.4717
C 7.9276 -0.5773 -0.3035
C 1.0585 -0.7768 0.9706
C -0.3174 -0.6621 0.7247
O -1.1767 -1.5184 1.4077
H -5.8603 0.2236 -2.5300
H -5.1779 1.1441 -1.0646
H -4.1024 -1.5828 -3.4600
H -3.5437 -2.6756 -2.1462
H -5.3044 -2.4011 -2.3838
H -2.6808 -1.5964 -0.4045
H -5.1286 -0.5456 0.8852
H -3.9214 -1.6854 1.5028
H -4.3216 0.4496 2.8607
H -2.6142 0.0915 2.5102
H -3.0672 3.6871 2.1777
H -4.3751 2.7658 3.0025
H -4.6657 3.4524 1.3616
H -2.6408 2.7459 -0.3017
H -2.3149 0.7835 -1.6073
H 0.3802 2.7349 -2.2154
H 2.2226 1.6485 -1.0963
H 3.6241 -0.4658 1.6151
H 3.9502 0.8869 0.4881
H 3.9486 -0.7012 -1.4610
H 3.5024 -2.0519 -0.3662
H 5.8437 -2.2587 -0.7676
H 5.6709 -1.6829 0.9239
H 6.2895 0.1242 -1.5211
H 6.2358 0.6509 0.2038
H 8.5651 0.3009 -0.5387
H 8.1964 -1.4054 -0.9936
H 8.1279 -0.8918 0.7430
H 1.4144 -1.5248 1.6690
H -0.8377 -2.2067 2.0698
*
