! B3LYP 6-31G* SP

* xyz 0 1
C -0.9046 2.5281 1.7647
C -0.4301 2.5150 0.3034
C -0.9988 3.6606 -0.5155
C -2.3832 3.9271 -0.5623
C -2.8719 4.9855 -1.3344
C -1.9920 5.7850 -2.0715
F -2.4669 6.8175 -2.8107
C -0.6217 5.5221 -2.0442
C -0.1268 4.4633 -1.2776
N -0.6666 1.2200 -0.3618
C -1.9707 0.5352 -0.3572
C -1.8215 -0.8799 0.1469
C -1.4518 -1.9021 -0.7445
C -1.1822 -3.2021 -0.2788
C -0.7482 -4.2643 -1.2136
O -0.6120 -4.0162 -2.4421
O -0.4807 -5.5478 -0.7437
C -1.3155 -3.4767 1.0927
C -1.7010 -2.4700 1.9800
C -1.9495 -1.1760 1.5156
F -2.3155 -0.2182 2.4030
C 0.3271 0.7616 -1.2933
O 0.2941 1.1820 -2.4828
C 1.3541 -0.2235 -0.8768
C 2.1673 -0.8596 -1.8313
N 3.0640 -1.8101 -1.4519
C 3.2087 -2.1826 -0.1520
C 4.1277 -3.1767 0.1974
C 4.2563 -3.5726 1.5330
C 3.4717 -2.9722 2.5232
C 2.5548 -1.9705 2.1840
C 2.4185 -1.5720 0.8459
C 1.5000 -0.5824 0.4741
H -2.0057 2.4735 1.8604
H -0.4550 1.6749 2.3152
H -0.5686 3.4662 2.2532
H 0.6731 2.6600 0.3774
H -3.0885 3.3316 0.0009
H -3.9326 5.1884 -1.3573
H 0.0604 6.1419 -2.6115
H 0.9404 4.2744 -1.2768
H -2.7144 1.0726 0.2602
H -2.3838 0.5260 -1.3896
H -1.3421 -1.6707 -1.7977
H -0.1843 -6.2832 -1.3749
H -1.1223 -4.4697 1.4828
H -1.8017 -2.6934 3.0350
H 2.0772 -0.6159 -2.8826
H 4.7355 -3.6495 -0.5628
H 4.9628 -4.3465 1.8000
H 3.5754 -3.2809 3.5553
H 1.9521 -1.5159 2.9613
H 0.8892 -0.1116 1.2337
*
