! B3LYP 6-31G* SP

* xyz 0 1
O 0.8988 -1.7573 -1.6860
C 0.4316 -1.0569 -0.7478
C -1.0364 -0.9937 -0.5950
C -1.6746 -0.0352 0.0886
C -3.1453 -0.0230 0.2350
C -3.6800 0.1394 1.5234
C -5.0628 0.1527 1.7217
C -5.9266 0.0201 0.6338
C -5.4101 -0.1125 -0.6567
C -4.0254 -0.1271 -0.8686
Cl -3.4466 -0.1839 -2.5315
N 1.3254 -0.3557 0.1365
C 2.7509 -0.3541 -0.0405
C 3.4347 -1.5781 -0.1450
C 4.8267 -1.6097 -0.2308
C 5.5547 -0.4220 -0.1995
C 4.8934 0.8024 -0.0875
C 3.4880 0.8575 -0.0122
C 2.8225 2.1829 0.0566
O 3.4708 3.1974 0.4316
O 1.4905 2.3330 -0.3203
H -1.6161 -1.7624 -1.0921
H -1.1233 0.7296 0.6163
H -3.0238 0.2403 2.3798
H -5.4649 0.2662 2.7202
H -6.9977 0.0332 0.7892
H -6.0895 -0.1887 -1.4963
H 0.9486 0.1777 0.9494
H 2.8887 -2.5128 -0.1313
H 5.3426 -2.5580 -0.3087
H 6.6350 -0.4492 -0.2622
H 5.4838 1.7103 -0.0765
H 1.0366 3.2377 -0.2816
*
