! B3LYP 6-31G* SP

* xyz 0 1
C 5.7737 0.7016 1.2173
C 5.2796 1.1844 -0.1400
N 4.1814 0.3455 -0.6020
N 4.3331 -0.7574 -1.3138
N 3.1445 -1.3043 -1.5100
C 2.2739 -0.4898 -0.8794
C 0.8157 -0.6910 -0.8085
S -0.2257 0.3437 0.0141
C -1.6094 -0.5419 -0.3551
C -3.0019 -0.1699 -0.0115
C -3.9970 -0.3709 -0.9854
C -5.3221 -0.0099 -0.7380
C -5.6758 0.5529 0.4863
C -4.7091 0.7415 1.4745
C -3.3715 0.3672 1.2515
C -2.3820 0.5430 2.3730
N -1.3012 -1.6083 -1.1271
C 0.0326 -1.7075 -1.3758
O 0.5249 -2.7578 -2.1488
N 2.9109 0.5459 -0.2981
H 6.6099 1.3460 1.5614
H 4.9516 0.7516 1.9626
H 6.1351 -0.3459 1.1414
H 6.1137 1.1469 -0.8737
H 4.9357 2.2380 -0.0568
H -3.7439 -0.7898 -1.9519
H -6.0750 -0.1602 -1.5010
H -6.7031 0.8380 0.6732
H -5.0097 1.1699 2.4229
H -2.8962 0.6351 3.3535
H -1.7863 1.4641 2.2057
H -1.7092 -0.3376 2.4392
H 1.5030 -2.8733 -2.3691
*
