! B3LYP 6-31G* SP

* xyz 0 1
N 1.3433 3.5793 2.7128
C 0.4301 2.4784 2.6060
O 0.0209 1.9219 3.6605
C -0.1555 2.0529 1.2706
C 0.6552 2.4916 0.0601
C -0.0036 3.0807 -1.0331
C 0.7028 3.4340 -2.1817
C 2.0880 3.2113 -2.2498
C 2.7457 2.6077 -1.1834
C 2.0380 2.2440 -0.0340
N -0.3794 0.5918 1.2234
C 0.7357 -0.3183 1.3872
O 1.3654 -0.3360 2.4734
C 1.1376 -1.2534 0.3097
C 1.6616 -2.5174 0.6464
C 2.0428 -3.4167 -0.3518
C 1.9437 -3.0491 -1.7014
C 1.4408 -1.7943 -2.0443
C 1.0364 -0.8999 -1.0444
C -1.7627 0.0651 1.1989
C -2.0252 -0.9502 2.3396
C -2.0387 -2.3478 1.6922
C -2.1552 -2.0669 0.2423
C -2.3702 -2.9951 -0.7807
F -2.4958 -4.3158 -0.5069
C -2.4662 -2.5315 -2.1005
C -2.3425 -1.1586 -2.3740
C -2.1218 -0.2437 -1.3327
C -2.0153 -0.7286 -0.0295
H 1.5686 4.1865 1.8974
H 1.7829 3.7994 3.6328
H -1.1360 2.5820 1.2227
H -1.0850 3.2522 -1.0056
H 0.1910 3.8834 -3.0171
H 2.6448 3.4916 -3.1392
H 3.8027 2.4113 -1.2543
H 2.5677 1.7688 0.7801
H 1.7707 -2.8227 1.6924
H 2.4201 -4.3954 -0.0857
H 2.2501 -3.7436 -2.4701
H 1.3728 -1.5113 -3.0882
H 0.6552 0.0693 -1.3385
H -2.5131 0.8819 1.2577
H -1.2728 -0.8871 3.1537
H -3.0225 -0.7468 2.7839
H -1.0885 -2.8792 1.8935
H -2.8963 -2.9497 2.0459
H -2.6370 -3.2330 -2.9094
H -2.4130 -0.8061 -3.3905
H -2.0182 0.8130 -1.5363
*
