! B3LYP 6-31G* SP

* xyz 0 1
O 1.3866 1.1852 -1.7276
C 1.3755 0.3677 -0.7651
N 0.1290 -0.1626 -0.2986
C -1.1173 -0.0081 -1.0562
C -2.1065 -1.0748 -0.6180
C -2.0213 -2.3538 -1.1948
C -2.8923 -3.3700 -0.8015
C -3.8513 -3.1275 0.1855
C -3.9250 -1.8733 0.8163
C -4.9984 -1.6114 1.8364
F -6.1693 -1.2985 1.1848
F -5.2042 -2.7350 2.6194
F -4.6520 -0.5632 2.6630
C -3.0508 -0.8499 0.4054
C -1.6635 1.4042 -0.9070
N -1.3359 2.1008 0.2193
C -1.7743 3.3624 0.4532
C -2.5941 3.9971 -0.4739
C -2.9627 3.3227 -1.6323
C -2.5204 2.0069 -1.8707
C -2.9164 1.3062 -3.1561
F -1.8039 1.1579 -3.9628
F -3.8698 2.0278 -3.8581
F -3.4511 0.0639 -2.8815
C 2.6507 -0.0153 -0.1190
C 2.7861 -1.2605 0.5170
C 3.9917 -1.6243 1.1239
C 5.0804 -0.7465 1.1041
C 6.2979 -1.0759 1.7162
C 7.3613 -0.1724 1.6831
C 7.1974 1.0553 1.0399
N 6.0119 1.3642 0.4474
C 4.9574 0.5028 0.4606
C 3.7506 0.8582 -0.1531
H 0.0936 -0.5807 0.6560
H -0.8787 -0.1834 -2.1266
H -1.2780 -2.5626 -1.9476
H -2.8255 -4.3478 -1.2610
H -4.5333 -3.9224 0.4611
H -3.1139 0.1200 0.8769
H -1.4793 3.8746 1.3573
H -2.9394 5.0072 -0.2974
H -3.5926 3.8415 -2.3425
H 1.9660 -1.9674 0.5294
H 4.0720 -2.5875 1.6104
H 6.4255 -2.0254 2.2175
H 8.3050 -0.4183 2.1545
H 8.0153 1.7644 1.0109
H 3.6675 1.8276 -0.6379
*
