! B3LYP 6-31G* SP

* xyz 0 1
O -1.9614 6.8090 -1.9027
C -0.7531 6.4441 -1.9548
O 0.1255 7.1068 -2.8115
C -0.2751 5.3185 -1.1197
C -1.1524 4.6630 -0.2306
C -0.6995 3.5959 0.5515
C 0.6330 3.1630 0.4531
S 1.1912 1.7824 1.3929
O 2.6427 1.9551 1.7485
O 0.4056 1.6809 2.6720
N 0.9765 0.3333 0.4598
C 1.9287 0.0232 -0.6119
C 2.6110 -1.2938 -0.3627
C 2.2765 -2.4236 -1.1258
C 2.8963 -3.6510 -0.8760
C 3.8567 -3.7734 0.1348
O 4.4498 -5.0310 0.3348
C 5.4705 -5.3195 1.2873
F 5.0126 -5.0719 2.5692
F 6.5921 -4.5504 1.0312
F 5.8127 -6.6536 1.1866
C 4.1888 -2.6407 0.9051
C 3.5654 -1.4127 0.6596
C -0.3114 -0.2971 0.4774
C -0.4403 -1.6576 0.7757
C -1.7133 -2.2390 0.8122
C -1.8607 -3.5992 1.1239
C -3.1321 -4.1726 1.1825
C -4.2638 -3.3970 0.9311
C -4.1335 -2.0416 0.6178
C -2.8583 -1.4447 0.5525
C -2.6789 -0.0737 0.2518
C -3.8434 0.8552 0.0131
C -4.5067 0.6988 -1.3506
C -3.6373 1.9131 -1.0672
N -1.4229 0.4479 0.2429
C 1.5095 3.8087 -0.4318
C 1.0619 4.8819 -1.2103
H -0.1957 7.8731 -3.3940
H -2.1898 4.9730 -0.1418
H -1.3919 3.1003 1.2252
H 1.3967 0.0169 -1.5875
H 2.7034 0.8161 -0.6843
H 1.5307 -2.3576 -1.9089
H 2.6349 -4.5118 -1.4791
H 4.9258 -2.6959 1.6944
H 3.8318 -0.5528 1.2613
H 0.4367 -2.2496 1.0087
H -0.9931 -4.2162 1.3254
H -3.2407 -5.2202 1.4296
H -5.2466 -3.8475 0.9824
H -5.0324 -1.4681 0.4355
H -4.5142 1.1440 0.8525
H -5.5966 0.9169 -1.3575
H -4.0406 -0.0428 -2.0400
H -4.2135 2.8524 -0.9098
H -2.6670 1.8950 -1.6094
H 2.5383 3.4772 -0.5250
H 1.7607 5.3609 -1.8894
*
