! B3LYP 6-31G* SP

* xyz 0 1
C 0.1047 -1.0852 -2.4673
C -1.0564 -0.9558 -1.4836
C -0.9284 -1.9344 -0.3374
C -0.9741 -3.3130 -0.6026
C -0.8036 -4.2388 0.4320
C -0.8283 -5.6202 0.1858
C -0.6484 -6.5210 1.2408
C -0.4436 -6.0492 2.5414
C -0.4188 -4.6738 2.7943
C -0.5979 -3.7660 1.7441
N -0.5843 -2.4305 1.9878
C -0.7519 -1.5093 1.0003
N -0.7664 -0.1196 1.3509
C 0.4503 0.5029 1.8745
C 1.4616 0.6667 0.7741
C 1.3523 1.7312 -0.1322
C 2.2644 1.8591 -1.1827
C 3.2950 0.9267 -1.3494
O 4.1768 1.0993 -2.4285
C 5.2589 0.2298 -2.7542
F 5.8918 0.7067 -3.8857
F 6.1709 0.1944 -1.7143
F 4.7859 -1.0449 -3.0115
C 3.4032 -0.1445 -0.4410
C 2.4868 -0.2761 0.6066
S -2.2970 0.6839 1.5380
O -3.3790 -0.1147 0.8647
O -2.6282 0.7933 3.0001
C -2.2332 2.2895 0.8146
C -2.5780 2.4745 -0.5303
C -2.4802 3.7398 -1.1160
C -2.0406 4.8420 -0.3623
C -1.9281 6.1780 -0.9876
O -1.5431 7.1699 -0.3108
O -2.2445 6.3524 -2.3322
C -1.7094 4.6531 0.9914
C -1.8072 3.3865 1.5742
H 1.0733 -0.9915 -1.9358
H 0.0711 -2.0643 -2.9888
H 0.0381 -0.2801 -3.2290
H -1.0729 0.0899 -1.1218
H -2.0139 -1.1377 -2.0172
H -1.1329 -3.6624 -1.6162
H -0.9845 -6.0008 -0.8165
H -0.6673 -7.5864 1.0501
H -0.3054 -6.7503 3.3544
H -0.2622 -4.3168 3.8047
H 0.8640 -0.1187 2.6986
H 0.2238 1.4963 2.3149
H 0.5595 2.4600 -0.0292
H 2.1661 2.6845 -1.8761
H 4.1819 -0.8872 -0.5391
H 2.5738 -1.1167 1.2838
H -2.9189 1.6406 -1.1296
H -2.7466 3.8530 -2.1593
H -2.1706 7.2624 -2.7707
H -1.3691 5.4824 1.5994
H -1.5391 3.2610 2.6153
*
