! B3LYP 6-31G* SP

* xyz 0 1
O 2.4941 0.4322 -1.8516
C 1.9148 0.1263 -0.7737
N 2.6845 -0.1982 0.3973
C 4.1206 -0.2549 0.4274
C 4.8569 -0.7969 -0.6399
C 6.2518 -0.8650 -0.5741
C 6.9365 -0.3892 0.5571
C 8.4369 -0.5085 0.6479
F 8.9592 0.4934 1.4476
F 8.7638 -1.7362 1.1927
F 9.0120 -0.4042 -0.6069
C 6.1946 0.1041 1.6437
C 4.8000 0.1706 1.5773
N 0.4777 0.1091 -0.7253
C -0.2287 0.8707 0.3115
C -1.5165 0.1463 0.7183
C -2.4080 -0.2186 -0.4977
C -3.0424 1.0309 -1.1740
C -4.0549 1.7356 -0.2585
C -4.9987 0.7610 0.3955
C -6.2031 1.2164 0.9539
C -7.0737 0.3174 1.5779
F -8.2392 0.7614 2.1097
C -6.7433 -1.0387 1.6543
C -5.5391 -1.4975 1.1133
C -4.6598 -0.6024 0.4948
O -3.4573 -1.0787 -0.0405
C -1.5652 -1.0178 -1.5186
C -0.2738 -0.2927 -1.9191
H 2.1797 -0.3546 1.2978
H 4.3563 -1.1994 -1.5102
H 6.7947 -1.3005 -1.4036
H 6.6926 0.4347 2.5466
H 4.2460 0.5600 2.4224
H 0.4009 1.0049 1.2150
H -0.4612 1.8868 -0.0706
H -2.0737 0.7647 1.4520
H -1.2325 -0.7907 1.2469
H -3.5799 0.7094 -2.0937
H -2.2717 1.7637 -1.4888
H -3.5213 2.3099 0.5279
H -4.6334 2.4648 -0.8668
H -6.4668 2.2657 0.9024
H -7.4183 -1.7346 2.1357
H -5.2855 -2.5479 1.1794
H -1.2897 -1.9990 -1.0716
H -2.1652 -1.2321 -2.4298
H -0.5043 0.6029 -2.5342
H 0.3337 -0.9849 -2.5430
*
