! B3LYP 6-31G* SP

* xyz 0 1
C -0.7918 1.8099 -2.0387
C -1.0900 1.4200 -0.5819
C -1.5038 2.5823 0.3102
C -1.0708 3.9062 0.0851
C -1.4568 4.9353 0.9492
C -2.2724 4.6604 2.0483
F -2.6422 5.6604 2.8860
C -2.7036 3.3541 2.2866
C -2.3216 2.3216 1.4257
N 0.0417 0.6641 0.0051
C -0.2121 -0.4419 0.9486
C -1.2877 -1.3953 0.4767
C -1.2544 -1.9346 -0.8195
C -2.2411 -2.8286 -1.2373
C -3.2670 -3.2007 -0.3665
C -3.3155 -2.6804 0.9386
C -4.4001 -3.0719 1.8656
O -5.2916 -3.8847 1.4987
O -4.4468 -2.5458 3.1540
C -2.3171 -1.7811 1.3531
C 1.3574 1.2592 0.0325
O 1.4922 2.4609 0.3851
C 2.5637 0.4923 -0.3291
C 2.6009 -0.7715 -0.9232
C 3.9063 -1.2140 -1.1612
C 4.2711 -2.4324 -1.7405
C 5.6366 -2.7187 -1.9108
C 6.6164 -1.7911 -1.5052
C 6.2392 -0.5694 -0.9260
C 4.8802 -0.3096 -0.7669
S 4.1487 1.0532 -0.1182
H -1.6405 2.3883 -2.4622
H -0.6578 0.8907 -2.6478
H 0.1364 2.4118 -2.1229
H -1.9812 0.7618 -0.6584
H -0.4282 4.1530 -0.7479
H -1.1184 5.9472 0.7673
H -3.3321 3.1390 3.1413
H -2.6662 1.3155 1.6298
H -0.4825 -0.0044 1.9335
H 0.7119 -1.0351 1.1133
H -0.4825 -1.6468 -1.5178
H -2.2131 -3.2318 -2.2415
H -4.0218 -3.8945 -0.7152
H -5.1857 -2.8069 3.7960
H -2.3394 -1.3760 2.3576
H 1.7270 -1.3471 -1.1816
H 3.5192 -3.1455 -2.0541
H 5.9373 -3.6572 -2.3580
H 7.6651 -2.0209 -1.6421
H 6.9847 0.1504 -0.6135
*
