! B3LYP 6-31G* SP

* xyz 0 1
Cl -0.4912 1.1436 2.7648
C -0.8049 1.9405 1.2248
C -1.4022 3.2052 1.3073
C -1.7849 3.8886 0.1572
C -1.6024 3.3018 -1.0893
C -1.0047 2.0457 -1.1926
C -0.5249 1.3565 -0.0501
C 0.0961 -0.0598 -0.2175
C 1.3046 -0.3088 0.7085
C 2.1624 0.7516 1.0843
C 3.3263 0.5077 1.8184
C 3.6914 -0.7993 2.1392
C 2.9087 -1.8666 1.7006
C 1.7440 -1.6274 0.9665
C -1.0884 -1.0276 0.0154
C -1.3240 -1.6601 1.2589
C -2.4495 -2.4655 1.4537
C -3.3798 -2.6318 0.4288
C -3.1942 -1.9813 -0.7898
C -2.0710 -1.1752 -0.9908
N 0.6548 -0.2448 -1.5834
C 1.4911 0.5986 -2.2265
C 1.9950 -0.0387 -3.3341
N 1.5306 -1.3007 -3.3747
C 0.7379 -1.3998 -2.2880
H -1.5923 3.6548 2.2740
H -2.2528 4.8615 0.2348
H -1.9393 3.8150 -1.9809
H -0.9379 1.6125 -2.1804
H 1.9399 1.7733 0.8076
H 3.9562 1.3337 2.1226
H 4.5967 -0.9865 2.7020
H 3.2149 -2.8830 1.9119
H 1.1914 -2.4780 0.5895
H -0.6458 -1.5401 2.0901
H -2.6053 -2.9540 2.4070
H -4.2522 -3.2532 0.5842
H -3.9271 -2.0931 -1.5784
H -1.9704 -0.6626 -1.9384
H 1.7494 1.5955 -1.8932
H 2.6911 0.3785 -4.0491
H 0.2627 -2.3267 -1.9951
*
