! B3LYP 6-31G* SP

* xyz 0 1
C 7.4394 2.0581 -2.0642
C 7.3144 1.0817 -0.9391
C 8.4774 0.5856 -0.2941
C 8.3533 -0.3212 0.7747
C 7.0674 -0.6913 1.1491
N 6.6900 -1.5214 2.1378
C 5.3296 -1.5032 2.0532
C 4.4650 -2.3200 2.9712
F 5.1927 -3.3814 3.4782
F 3.3731 -2.8228 2.2877
F 4.0316 -1.5353 4.0225
N 4.8632 -0.6833 1.0658
C 3.5090 -0.3949 0.6815
C 2.5868 0.0803 1.6233
C 1.2729 0.3692 1.2440
C 0.8572 0.1909 -0.0895
C -0.5352 0.4930 -0.5122
O -0.7880 0.6518 -1.7385
C -1.6456 0.6697 0.4912
N -2.9530 0.4406 -0.1239
C -3.4560 -0.7986 -0.5921
O -2.7380 -1.8144 -0.7890
N -4.8623 -0.7897 -0.7872
C -5.3789 0.5251 -0.3900
C -6.0100 1.2335 -1.6057
C -7.2910 0.5281 -2.0921
C -8.1732 -0.0341 -0.9511
F -9.5051 0.2054 -1.2450
F -7.9974 -1.4054 -0.8581
C -7.8437 0.6044 0.4038
C -6.3727 0.3818 0.8003
C -4.1187 1.2418 0.0371
O -4.0875 2.4195 0.4861
C 1.7946 -0.2663 -1.0340
C 3.1077 -0.5538 -0.6516
C 5.9798 -0.1979 0.5065
N 6.0730 0.6844 -0.5199
H 8.1054 1.6438 -2.8505
H 6.4444 2.2645 -2.5136
H 7.8669 3.0105 -1.6857
H 9.4615 0.9025 -0.6163
H 9.2239 -0.7106 1.2862
H 2.8910 0.2515 2.6467
H 0.5946 0.7517 1.9948
H -1.5225 -0.0452 1.3324
H -1.5908 1.7026 0.8956
H -5.4260 -1.6011 -1.1246
H -5.2799 1.2821 -2.4440
H -6.2616 2.2811 -1.3267
H -7.8770 1.2575 -2.6932
H -7.0121 -0.2993 -2.7808
H -8.5043 0.1760 1.1886
H -8.0519 1.6961 0.3533
H -6.1328 1.1092 1.6070
H -6.2723 -0.6284 1.2554
H 1.5109 -0.4109 -2.0691
H 3.8109 -0.9133 -1.3922
*
