! B3LYP 6-31G* SP

* xyz 0 1
C -2.4219 1.2484 1.5287
C -1.5511 1.7603 0.4050
C -1.0202 0.8662 -0.5549
N -1.1724 -0.5547 -0.4260
C -0.4303 -1.3088 0.5904
C 1.0170 -0.8962 0.6146
C 1.5011 -0.0585 1.6434
C 2.8326 0.3807 1.6320
C 3.6643 -0.0191 0.5848
C 3.1995 -0.8270 -0.4212
C 1.8767 -1.2776 -0.4330
C 4.2302 -1.0951 -1.4509
C 5.5105 -0.3901 -0.9046
C 6.0760 0.5895 -1.9522
C 6.5876 -1.4377 -0.5566
C 5.0756 0.3780 0.3833
S -2.1585 -1.4056 -1.5723
O -2.7483 -0.4428 -2.5655
O -1.3188 -2.4061 -2.3177
C -3.4612 -2.2100 -0.7063
C -4.5885 -1.4816 -0.3104
C -5.5974 -2.0940 0.4379
C -5.4892 -3.4467 0.8062
C -6.5455 -4.0851 1.6225
O -6.4495 -5.2979 1.9568
O -7.6490 -3.3478 2.0427
C -4.3538 -4.1745 0.4031
C -3.3478 -3.5585 -0.3462
N -0.3130 1.3435 -1.6121
C -0.0629 2.6634 -1.7859
C -0.5134 3.5922 -0.8460
C -0.2282 4.9566 -1.0073
C -0.6583 5.8808 -0.0545
C -1.3647 5.4504 1.0695
C -1.6606 4.0949 1.2407
C -1.2521 3.1429 0.2785
H -2.8085 0.2287 1.3302
H -3.3199 1.8905 1.6460
H -1.8438 1.2391 2.4758
H -0.4912 -2.3983 0.3812
H -0.8959 -1.1532 1.5856
H 0.8453 0.2641 2.4428
H 3.2026 1.0295 2.4152
H 1.5176 -1.8942 -1.2482
H 4.3621 -2.1931 -1.5720
H 3.8926 -0.6685 -2.4215
H 6.3656 0.0450 -2.8765
H 5.3154 1.3555 -2.2172
H 6.9732 1.1098 -1.5526
H 6.8861 -2.0063 -1.4643
H 7.4915 -0.9429 -0.1404
H 6.1999 -2.1570 0.1980
H 5.1254 1.4827 0.2550
H 5.6748 0.0948 1.2769
H -4.6791 -0.4336 -0.5642
H -6.4533 -1.5034 0.7403
H -8.3748 -3.7748 2.6066
H -4.2377 -5.2167 0.6763
H -2.4740 -4.1298 -0.6305
H 0.5048 2.9822 -2.6517
H 0.3286 5.3069 -1.8690
H -0.4357 6.9332 -0.1819
H -1.6854 6.1712 1.8118
H -2.2008 3.8063 2.1316
*
