! B3LYP 6-31G* SP

* xyz 0 1
C -2.6917 -2.8769 -1.0823
C -1.1746 -2.7534 -1.1751
C -0.6655 -1.3245 -0.9093
N -1.0177 -0.8068 0.4317
C -0.8120 -1.6143 1.6134
O -1.6813 -1.5974 2.5279
C 0.3698 -2.4932 1.7799
C 0.1834 -3.7724 2.3338
C 1.2636 -4.6382 2.5049
C 2.5452 -4.2349 2.1371
C 2.7533 -2.9609 1.6063
C 1.6724 -2.0711 1.4294
O 1.8683 -0.7718 0.9309
C 3.1178 -0.2761 0.4555
C 2.9255 1.0856 -0.1428
C 2.5513 1.2183 -1.4906
C 2.3582 2.4873 -2.0462
C 2.5320 3.6291 -1.2594
C 2.8816 3.5035 0.0890
C 3.0713 2.2363 0.6496
C -1.6277 0.5340 0.6018
C -3.0895 0.5876 0.0797
C -3.2338 1.3641 -1.2368
C -2.6762 2.7997 -1.1399
C -1.5274 2.9595 -0.1148
N -0.6425 4.0531 -0.5153
C -0.7301 1.6514 0.0206
H -2.9985 -3.8963 -1.3984
H -3.1825 -2.1388 -1.7516
H -3.0282 -2.7257 -0.0356
H -0.8636 -3.0463 -2.2015
H -0.7028 -3.4765 -0.4795
H -1.0653 -0.6663 -1.7037
H 0.4352 -1.3203 -1.0319
H -0.8064 -4.1088 2.6175
H 1.1059 -5.6243 2.9223
H 3.3821 -4.9080 2.2706
H 3.7635 -2.6744 1.3482
H 3.8451 -0.2270 1.2949
H 3.5248 -0.9625 -0.3187
H 2.4048 0.3409 -2.1090
H 2.0693 2.5850 -3.0843
H 2.3784 4.6106 -1.6886
H 2.9951 4.3884 0.7031
H 3.3297 2.1519 1.6986
H -1.6901 0.7595 1.6918
H -3.7257 1.0933 0.8403
H -3.5074 -0.4300 -0.0401
H -2.7100 0.8202 -2.0497
H -4.3083 1.4058 -1.5200
H -3.4986 3.4936 -0.8597
H -2.3253 3.1012 -2.1518
H -1.9702 3.2042 0.8788
H -1.2143 4.9251 -0.5950
H 0.0326 4.2282 0.2638
H -0.3269 1.3744 -0.9749
H 0.1339 1.8051 0.7022
*
