! B3LYP 6-31G* SP

* xyz 0 1
C -3.4802 2.9265 -0.0224
N -3.6702 1.4717 -0.1886
C -3.1234 0.6107 0.7224
O -2.4682 1.0854 1.6884
C -3.2919 -0.7889 0.5857
C -2.7124 -1.7514 1.4839
C -1.8379 -1.4002 2.6761
C -0.4606 -0.9847 2.2408
O 0.1627 -1.6912 1.4020
N 0.1584 0.1736 2.8217
C 1.4013 0.7221 2.3664
N 2.1078 0.2366 1.3236
C 3.2423 0.9551 1.0913
C 4.1675 0.5997 -0.0170
C 3.7464 -0.2973 -1.0153
C 4.5941 -0.6333 -2.0719
C 5.8780 -0.0922 -2.1427
C 6.3373 0.7781 -1.1407
C 7.7101 1.3972 -1.2325
F 7.6138 2.6259 -1.8586
F 8.5702 0.5892 -1.9564
F 8.2464 1.5754 0.0310
C 5.4692 1.1356 -0.0930
C 3.4285 2.0335 1.9642
S 2.1377 2.0686 3.0429
C -2.9119 -3.1202 1.2446
C -3.6727 -3.5554 0.1731
C -4.2512 -2.6396 -0.6923
C -4.0782 -1.2463 -0.5117
N -4.6603 -0.3419 -1.3762
C -5.5046 -0.8110 -2.4975
C -4.4567 1.0042 -1.2048
O -5.0033 1.8291 -1.9922
H -4.2758 3.3332 0.6367
H -3.5088 3.4563 -0.9984
H -2.4868 3.1577 0.4183
H -2.3259 -0.6278 3.3046
H -1.7222 -2.2728 3.3550
H -0.3312 0.6637 3.6036
H 2.7534 -0.7287 -0.9903
H 4.2517 -1.3116 -2.8429
H 6.5111 -0.3553 -2.9806
H 5.8223 1.8210 0.6642
H 4.2382 2.7490 1.9531
H -2.4697 -3.8664 1.8937
H -3.8143 -4.6164 0.0094
H -4.8302 -3.0471 -1.5080
H -5.9416 0.0136 -3.0972
H -4.8988 -1.4294 -3.1938
H -6.3592 -1.4036 -2.1066
*
