! B3LYP 6-31G* SP

* xyz 0 1
C 1.3213 3.2669 -0.3430
O 0.5400 2.1079 -0.0735
C 1.0486 0.7995 -0.0309
C 2.4210 0.5258 -0.2637
C 2.8387 -0.7998 -0.2050
N 4.0726 -1.2946 -0.3860
N 4.0218 -2.6137 -0.2333
C 2.7429 -2.9639 0.0480
C 1.9782 -1.8183 0.0687
C 0.6269 -1.6027 0.3059
C 0.1532 -0.2734 0.2473
C -1.2761 -0.0018 0.5052
C -1.6290 0.5673 1.7393
C -2.9658 0.8174 2.0482
C -3.9652 0.4982 1.1311
C -3.6320 -0.0601 -0.1047
C -2.2860 -0.2996 -0.4485
C -1.9514 -0.9005 -1.8007
F -3.0237 -0.8145 -2.6724
F -0.8864 -0.2305 -2.3761
F -1.6204 -2.2333 -1.6446
H 1.7770 3.1937 -1.3530
H 0.6653 4.1608 -0.3131
H 2.1132 3.3809 0.4272
H 3.1357 1.3076 -0.4813
H 4.9389 -0.7556 -0.6079
H 2.4039 -3.9762 0.2231
H -0.0341 -2.4299 0.5336
H -0.8649 0.8079 2.4689
H -3.2279 1.2516 3.0044
H -5.0027 0.6836 1.3779
H -4.4335 -0.3007 -0.7911
*
