! B3LYP 6-31G* SP

* xyz 0 1
O 0.8544 -1.1053 -2.3566
C 1.1688 -0.4061 -1.3546
N 0.2548 0.5920 -0.8660
C -1.1185 0.7183 -1.3772
C -2.0668 -0.3727 -0.8859
C -1.6415 -1.4436 -0.0720
C -2.5373 -2.4416 0.3203
C -3.8769 -2.4028 -0.0953
C -4.8199 -3.5133 0.2932
F -6.1386 -3.0990 0.2087
F -4.6310 -4.5881 -0.5555
F -4.5754 -3.9173 1.5945
C -4.2937 -1.3677 -0.9471
C -3.4005 -0.3659 -1.3347
C -1.6810 2.1248 -1.1343
C -2.1407 2.8264 -2.2705
N -2.6555 4.0757 -2.1645
C -2.7532 4.7068 -0.9726
C -2.3248 4.0737 0.1880
C -1.8029 2.7659 0.1434
C -1.3022 2.2025 1.4647
F -2.1407 2.5888 2.4968
F -1.2518 0.8295 1.4837
F -0.0382 2.7008 1.7210
C 2.4777 -0.6269 -0.6955
C 3.5368 -1.2145 -1.4123
C 4.7742 -1.4380 -0.8014
C 4.9686 -1.0847 0.5396
C 6.1970 -1.2989 1.1782
C 6.3533 -0.9405 2.5186
C 5.2794 -0.3720 3.2084
N 4.0920 -0.1691 2.5773
C 3.9092 -0.5057 1.2715
C 2.6728 -0.2830 0.6555
H 0.6463 1.3505 -0.2676
H -1.0531 0.5632 -2.4774
H -0.6232 -1.5120 0.2820
H -2.1803 -3.2515 0.9445
H -5.3093 -1.3343 -1.3206
H -3.7518 0.4151 -1.9965
H -2.0904 2.3793 -3.2549
H -3.1603 5.7081 -0.9265
H -2.3959 4.6144 1.1238
H 3.4108 -1.4931 -2.4514
H 5.5760 -1.8870 -1.3755
H 7.0297 -1.7419 0.6447
H 7.2991 -1.1024 3.0193
H 5.3905 -0.0917 4.2471
H 1.8640 0.1349 1.2418
*
