! B3LYP 6-31G* SP

* xyz 0 1
C 0.4941 2.2442 1.5307
C 0.2927 1.2137 0.4077
C -0.5961 1.6799 -0.7410
C -1.4906 2.7668 -0.6192
C -2.3316 3.1185 -1.6784
C -2.2937 2.4001 -2.8737
F -3.1187 2.7378 -3.8952
C -1.4064 1.3329 -3.0166
C -0.5597 0.9748 -1.9630
F 0.2906 -0.0684 -2.1345
N -0.1715 -0.0875 0.9466
C -1.3652 -0.2053 1.8083
C -2.6248 0.2175 1.0962
C -3.4050 1.2688 1.6020
C -4.5560 1.6785 0.9266
C -4.9405 1.0442 -0.2569
C -4.1813 -0.0198 -0.7722
C -4.5804 -0.6767 -2.0363
O -3.9045 -1.6352 -2.4997
O -5.7057 -0.2385 -2.7304
C -3.0315 -0.4382 -0.0778
C 0.5357 -1.2947 0.5988
O -0.1139 -2.2956 0.1902
C 2.0034 -1.3932 0.7505
C 2.7286 -2.4087 0.1064
C 4.1164 -2.4858 0.2828
C 4.8682 -3.4887 -0.3498
C 6.2520 -3.5528 -0.1582
C 6.8932 -2.6193 0.6615
C 6.1547 -1.6160 1.2963
C 4.7660 -1.5433 1.1113
C 4.0029 -0.5519 1.7393
N 2.6586 -0.5045 1.5477
H 1.2237 1.8547 2.2709
H 0.8973 3.1894 1.1102
H -0.4528 2.4643 2.0632
H 1.3035 1.0874 -0.0382
H -1.5654 3.3388 0.2937
H -3.0220 3.9447 -1.5661
H -1.3770 0.7780 -3.9459
H -1.4998 -1.2552 2.1486
H -1.2100 0.3840 2.7357
H -3.1150 1.7829 2.5096
H -5.1464 2.4977 1.3159
H -5.8298 1.3894 -0.7691
H -5.9872 -0.6813 -3.5970
H -2.4357 -1.2552 -0.4627
H 2.2204 -3.1264 -0.5276
H 4.3873 -4.2219 -0.9863
H 6.8284 -4.3290 -0.6454
H 7.9644 -2.6749 0.8066
H 6.6656 -0.9016 1.9309
H 4.4706 0.1807 2.3845
*
