! B3LYP 6-31G* SP

* xyz 0 1
N -2.9365 -0.9227 -2.7704
C -1.5925 -1.1437 -2.3456
O -0.8793 -1.9783 -2.9618
C -1.0505 -0.4160 -1.1388
C -1.4108 -1.1358 0.1521
C -1.2559 -2.5327 0.2857
C -1.5425 -3.1652 1.4982
C -1.9781 -2.4146 2.5922
C -2.1288 -1.0299 2.4761
C -1.8487 -0.3925 1.2644
N 0.4055 -0.1745 -1.2648
C 0.8815 0.8659 -2.1881
C 0.5077 2.2370 -1.6927
C 1.2183 2.8207 -0.6315
C 0.8559 4.0838 -0.1530
C -0.2119 4.7734 -0.7318
C -0.9198 4.2024 -1.7940
C -0.5634 2.9385 -2.2744
C 1.3596 -1.1589 -0.8291
O 1.8211 -1.9767 -1.6737
C 1.8361 -1.1967 0.5754
C 2.6840 -2.2320 1.0132
C 3.1377 -2.2673 2.3367
C 2.7494 -1.2740 3.2374
C 1.9132 -0.2378 2.8132
C 1.4631 -0.1942 1.4900
H -3.5498 -0.2424 -2.2695
H -3.3227 -1.4470 -3.5873
H -1.5602 0.5714 -1.1196
H -0.8992 -3.1321 -0.5417
H -1.4209 -4.2379 1.5911
H -2.1958 -2.9053 3.5307
H -2.4586 -0.4485 3.3278
H -1.9563 0.6841 1.1997
H 1.9893 0.8215 -2.2921
H 0.4644 0.6837 -3.2026
H 2.0440 2.2930 -0.1691
H 1.3983 4.5242 0.6745
H -0.4921 5.7497 -0.3581
H -1.7459 4.7385 -2.2440
H -1.1234 2.5051 -3.0946
H 2.9900 -3.0205 0.3374
H 3.7895 -3.0677 2.6647
H 3.1001 -1.3046 4.2624
H 1.6146 0.5346 3.5102
H 0.8201 0.6220 1.1886
*
