! B3LYP 6-31G* SP

* xyz 0 1
C 1.4618 -2.7199 -3.7717
C 1.8884 -2.6474 -2.3219
C 1.6344 -1.4853 -1.5546
N 0.8878 -0.3843 -2.0902
C -0.5598 -0.5019 -2.2906
C -1.3031 -0.0212 -1.0741
C -2.0307 1.1915 -1.1087
C -2.6835 1.6595 0.0427
C -2.6035 0.8945 1.2101
C -1.9201 -0.2683 1.2435
C -1.2559 -0.7656 0.1226
C -2.0172 -0.8462 2.5931
O -2.8213 0.0338 3.3693
C -3.1953 1.1400 2.5510
C -2.6316 2.4281 3.1626
C -4.7255 1.2052 2.4625
S 1.6690 1.1558 -2.2821
O 1.4058 1.6651 -3.6717
O 3.1544 1.0011 -2.1086
C 1.0718 2.2998 -1.0826
C 0.3992 3.4633 -1.4785
C -0.0972 4.3511 -0.5196
C 0.0794 4.0919 0.8513
C -0.4345 5.0342 1.8693
O -1.1027 6.0459 1.5233
O -0.1838 4.8128 3.2210
C 0.7575 2.9244 1.2415
C 1.2489 2.0362 0.2809
N 2.0950 -1.3983 -0.2794
C 2.7752 -2.4038 0.3208
C 3.0152 -3.5960 -0.3659
C 3.6970 -4.6496 0.2624
C 3.9281 -5.8428 -0.4224
C 3.4797 -5.9946 -1.7341
C 2.8019 -4.9528 -2.3731
C 2.5635 -3.7322 -1.7027
H 2.3150 -3.0445 -4.4034
H 0.6238 -3.4401 -3.8789
H 1.1378 -1.7380 -4.1714
H -0.8565 0.0776 -3.1912
H -0.8388 -1.5599 -2.4869
H -2.0775 1.7783 -2.0173
H -3.2315 2.5923 0.0247
H -0.7164 -1.7023 0.1803
H -1.0068 -0.9280 3.0463
H -2.4952 -1.8473 2.5468
H -3.0489 2.5846 4.1801
H -2.8868 3.3085 2.5344
H -1.5267 2.3565 3.2494
H -5.1255 0.2683 2.0179
H -5.1630 1.3232 3.4769
H -5.0482 2.0639 1.8351
H 0.2463 3.6812 -2.5273
H -0.6172 5.2407 -0.8521
H -0.5364 5.4485 3.9264
H 0.9069 2.6945 2.2888
H 1.7644 1.1416 0.6022
H 3.1146 -2.2739 1.3410
H 4.0480 -4.5507 1.2828
H 4.4526 -6.6537 0.0664
H 3.6558 -6.9250 -2.2585
H 2.4621 -5.1204 -3.3858
*
