! B3LYP 6-31G* SP

* xyz 0 1
O 1.4998 -1.9588 -1.5041
C 1.2175 -1.2760 -0.4812
N 2.2730 -0.6212 0.2438
C 3.6505 -1.0329 0.1932
C 4.6623 -0.0808 0.3861
C 6.0081 -0.4591 0.3678
C 6.3642 -1.8068 0.1677
O 7.6985 -2.2435 0.1365
C 8.8425 -1.4101 0.3107
F 8.8114 -0.8141 1.5586
F 9.9810 -2.1865 0.2160
F 8.8813 -0.4404 -0.6753
C 5.3529 -2.7592 -0.0036
C 4.0072 -2.3813 0.0157
N -0.1596 -1.1370 -0.0677
C -1.2330 -1.7220 -0.8873
C -2.5015 -0.8481 -0.8851
C -2.7768 -0.1000 0.4569
C -1.9614 -0.7298 1.6034
C -0.4606 -0.6647 1.2934
C -4.2822 -0.1390 0.8206
C -5.1397 0.6420 -0.1926
O -6.4386 0.7662 0.3318
C -4.5542 2.0110 -0.4728
C -5.3379 3.0188 -1.0636
C -4.7843 4.2716 -1.3435
C -3.4422 4.5256 -1.0533
C -2.6451 3.5237 -0.4938
F -1.3386 3.7728 -0.2279
C -3.1898 2.2635 -0.2181
O -2.3697 1.2672 0.3247
H 2.0491 0.2571 0.7618
H 4.4068 0.9599 0.5425
H 6.7592 0.3047 0.5109
H 5.6119 -3.8013 -0.1423
H 3.2493 -3.1468 -0.0835
H -1.4779 -2.7293 -0.4849
H -0.9082 -1.8546 -1.9421
H -2.4234 -0.1073 -1.7099
H -3.3516 -1.5142 -1.1471
H -2.1533 -0.1878 2.5557
H -2.2645 -1.7905 1.7503
H 0.0901 -1.2829 2.0353
H -0.1285 0.3901 1.3999
H -4.6404 -1.1904 0.8780
H -4.4254 0.3166 1.8261
H -5.1613 0.0728 -1.1520
H -7.0742 0.6702 -0.4252
H -6.3773 2.8391 -1.3065
H -5.3967 5.0455 -1.7878
H -3.0186 5.4979 -1.2685
*
