! B3LYP 6-31G* SP

* xyz 0 1
C 5.8353 1.1465 0.3467
C 4.6904 0.2133 0.1494
N 4.8215 -1.0825 -0.1913
N 3.5923 -1.5630 -0.2967
C 2.7612 -0.5394 -0.0207
C 1.2963 -0.6321 -0.0242
S 0.2486 0.6369 0.3171
C -1.1414 -0.2969 0.0961
C -2.5362 0.1808 0.2384
C -2.8127 1.5167 0.5861
C -4.1340 1.9551 0.7174
C -5.1918 1.0687 0.5039
C -4.9307 -0.2593 0.1585
F -5.9584 -1.1191 -0.0485
C -3.6109 -0.7029 0.0259
N -0.8191 -1.5694 -0.2359
C 0.5264 -1.7575 -0.3031
O 1.0774 -2.9926 -0.6286
O 3.4291 0.5560 0.2511
H 6.1702 1.5338 -0.6377
H 5.5227 1.9972 0.9877
H 6.6764 0.6138 0.8378
H -2.0128 2.2251 0.7573
H -4.3379 2.9839 0.9850
H -6.2132 1.4119 0.6065
H -3.4316 -1.7365 -0.2426
H 0.4830 -3.7887 -0.8253
*
