! B3LYP 6-31G* SP

* xyz 0 1
C -1.8195 1.6894 1.8283
C -0.9702 2.2264 0.6985
C -0.4323 1.3529 -0.2755
N -0.5723 -0.0695 -0.1644
C 0.2638 -0.8145 0.7825
C 1.7108 -0.6668 0.4279
C 2.3575 -1.3269 -0.6168
C 3.6835 -0.9067 -0.7700
C 4.5897 -1.3671 -1.7310
C 5.8877 -0.8273 -1.7523
C 6.2652 0.1618 -0.8199
Cl 7.8895 0.8242 -0.8584
C 5.3438 0.6211 0.1378
C 4.0642 0.0701 0.1385
S 2.7697 0.4435 1.1415
S -1.4578 -0.9168 -1.3939
O -0.5091 -1.3481 -2.4772
O -2.4978 -0.0100 -1.9916
C -2.2689 -2.3130 -0.6903
C -3.2546 -2.1211 0.2896
C -3.8740 -3.2201 0.8912
C -3.5131 -4.5296 0.5203
C -4.1403 -5.6987 1.1746
O -5.0457 -5.5362 2.0427
O -3.7283 -6.9878 0.8475
C -2.5301 -4.7145 -0.4719
C -1.9119 -3.6140 -1.0710
N 0.2633 1.8540 -1.3304
C 0.4937 3.1782 -1.4909
C 0.0282 4.0895 -0.5397
C 0.2855 5.4610 -0.6899
C -0.1826 6.3712 0.2597
C -0.9043 5.9191 1.3644
C -1.1683 4.5561 1.5269
C -0.7116 3.6171 0.5743
H -1.2778 1.8085 2.7913
H -2.7844 2.2392 1.8702
H -2.0778 0.6194 1.7005
H 0.0916 -0.4429 1.8140
H 0.0010 -1.8928 0.7715
H 1.8835 -2.0695 -1.2440
H 4.3003 -2.1237 -2.4500
H 6.5988 -1.1759 -2.4920
H 5.6164 1.3849 0.8541
H -3.5380 -1.1196 0.5934
H -4.6279 -3.0441 1.6526
H -4.1403 -7.7943 1.3000
H -2.2312 -5.7113 -0.7803
H -1.1493 -3.7798 -1.8231
H 1.0556 3.5162 -2.3528
H 0.8451 5.8290 -1.5415
H 0.0187 7.4294 0.1409
H -1.2619 6.6289 2.1005
H -1.7259 4.2516 2.4037
*
