! B3LYP 6-31G* SP

* xyz 0 1
O 3.0233 -1.2692 3.0987
C 3.4780 -2.0920 2.2597
O 3.9106 -3.3419 2.6958
C 3.6163 -1.7219 0.8326
C 4.7191 -2.2368 0.1265
C 4.9496 -1.8747 -1.2011
C 4.0851 -0.9924 -1.8438
C 2.9748 -0.4861 -1.1686
C 2.7076 -0.8592 0.1595
S 1.2151 -0.2659 0.9122
O 1.5580 0.9017 1.7950
O 0.5806 -1.3466 1.7420
N 0.0666 0.2389 -0.2933
C -0.4363 -0.7354 -1.2680
C -1.7613 -1.2946 -0.8221
C -1.8172 -2.4842 -0.0764
C -3.0465 -2.9775 0.3720
C -4.2263 -2.2861 0.0831
C -4.1788 -1.1001 -0.6554
C -2.9517 -0.6037 -1.1059
C -0.6137 1.4887 -0.1143
N -1.3483 1.6872 1.0133
C -2.0332 2.8386 1.2373
C -2.0117 3.8713 0.2887
C -2.7372 5.1648 0.5589
F -2.9673 5.8618 -0.6152
F -3.9584 4.9111 1.1594
F -1.9728 5.9480 1.4039
C -1.2304 3.7018 -0.8649
C -0.5320 2.5098 -1.0765
Cl 0.4702 2.3522 -2.5119
H 3.8403 -3.6053 3.6713
H 5.4221 -2.9030 0.6119
H 5.8084 -2.2702 -1.7281
H 4.2715 -0.7044 -2.8705
H 2.3158 0.1906 -1.6936
H -0.5431 -0.2591 -2.2649
H 0.2959 -1.5619 -1.3944
H -0.9111 -3.0293 0.1573
H -3.0841 -3.8951 0.9452
H -5.1767 -2.6684 0.4325
H -5.0926 -0.5636 -0.8759
H -2.9281 0.3206 -1.6701
H -2.5964 2.9461 2.1553
H -1.1539 4.4955 -1.5973
*
