! B3LYP 6-31G* SP

* xyz 0 1
C -2.3790 1.7572 0.6702
C -1.2307 2.3663 -0.1023
C -0.0826 1.5997 -0.4127
N 0.0121 0.2185 -0.0472
C 0.4772 -0.1651 1.2891
C 1.8123 -0.8552 1.2078
C 1.9371 -2.2038 1.5731
C 3.1649 -2.8600 1.4522
C 4.2872 -2.1744 0.9644
C 5.5225 -2.8281 0.8274
C 6.6332 -2.1326 0.3368
C 6.5194 -0.7871 -0.0184
C 5.2961 -0.1240 0.1182
C 4.1734 -0.8086 0.6075
C 2.9382 -0.1573 0.7397
S -0.4290 -0.9908 -1.2132
O -0.7713 -0.3340 -2.5225
O 0.7262 -1.9250 -1.4458
C -1.8308 -1.8844 -0.6370
C -3.1227 -1.4014 -0.8876
C -4.2392 -2.0974 -0.4166
C -4.0776 -3.2893 0.3145
C -5.2548 -4.0354 0.8107
O -6.4229 -3.6145 0.5782
O -5.0832 -5.2121 1.5388
C -2.7774 -3.7656 0.5664
C -1.6629 -3.0677 0.0936
N 0.9379 2.1530 -1.1172
C 0.9161 3.4397 -1.5376
C -0.1964 4.2454 -1.2794
C -0.2342 5.5697 -1.7408
C -1.3583 6.3644 -1.5049
C -2.4463 5.8484 -0.7999
C -2.4175 4.5341 -0.3283
C -1.2922 3.7087 -0.5594
H -3.2788 1.7104 0.0208
H -2.1673 0.7300 1.0257
H -2.6010 2.3745 1.5672
H 0.5773 0.7336 1.9383
H -0.2834 -0.8219 1.7633
H 1.0823 -2.7516 1.9474
H 3.2351 -3.9057 1.7357
H 5.6282 -3.8733 1.0960
H 7.5836 -2.6406 0.2305
H 7.3832 -0.2532 -0.3998
H 5.2292 0.9232 -0.1583
H 2.8497 0.8899 0.4760
H -3.2664 -0.4832 -1.4443
H -5.2271 -1.7024 -0.6253
H -5.8814 -5.7318 1.8831
H -2.6192 -4.6781 1.1281
H -0.6706 -3.4517 0.2982
H 1.7658 3.8257 -2.0888
H 0.6046 5.9897 -2.2847
H -1.3861 7.3833 -1.8680
H -3.3164 6.4672 -0.6269
H -3.2863 4.1747 0.2054
*
