! B3LYP 6-31G* SP

* xyz 0 1
C 0.4469 1.7190 -1.5159
C -0.4285 1.8727 -0.2915
C -1.1349 0.7650 0.2353
N -1.0446 -0.5306 -0.3685
C -0.2615 -1.5828 0.2801
C 1.2024 -1.2470 0.2088
C 1.9501 -1.5931 -0.9212
C 3.2818 -1.1895 -1.0390
C 3.9040 -0.4130 -0.0322
C 5.3621 0.0669 -0.1998
C 6.2190 -0.4096 0.9896
O 5.9434 -0.5156 -1.3493
C 5.4352 1.6186 -0.3288
F 5.1429 2.2527 0.8644
F 4.5398 2.0611 -1.2888
F 6.7101 1.9964 -0.7142
C 3.1333 -0.0777 1.1109
F 3.6483 0.6498 2.1313
C 1.8019 -0.4888 1.2208
S -2.0835 -0.9211 -1.7010
O -1.2684 -1.5404 -2.8023
O -2.7334 0.3265 -2.2326
C -3.3300 -2.0328 -1.1477
C -4.3124 -1.5838 -0.2568
C -5.2955 -2.4618 0.2100
C -5.3068 -3.8058 -0.2068
C -6.3454 -4.7403 0.2815
O -7.2396 -4.3430 1.0780
O -6.3483 -6.0680 -0.1387
C -4.3138 -4.2510 -1.0971
C -3.3318 -3.3707 -1.5624
N -1.8957 0.9082 1.3517
C -2.0203 2.0910 2.0004
C -1.3447 3.2221 1.5346
C -1.4634 4.4465 2.2109
C -0.7823 5.5728 1.7477
C 0.0222 5.4863 0.6116
C 0.1511 4.2737 -0.0704
C -0.5332 3.1207 0.3765
H 1.5051 1.9216 -1.2448
H 0.4045 0.7034 -1.9555
H 0.1206 2.4304 -2.3036
H -0.4452 -2.5624 -0.2121
H -0.5854 -1.6904 1.3382
H 1.4955 -2.1627 -1.7232
H 3.8104 -1.4876 -1.9335
H 6.1049 -1.5065 1.1281
H 7.2929 -0.1988 0.7939
H 5.9507 0.0942 1.9396
H 5.5875 -0.0573 -2.1561
H 1.2282 -0.1974 2.0936
H -4.3148 -0.5538 0.0788
H -6.0445 -2.0892 0.8977
H -7.0555 -6.7160 0.1889
H -4.2935 -5.2801 -1.4339
H -2.5736 -3.7368 -2.2424
H -2.6442 2.1429 2.8841
H -2.0811 4.5314 3.0974
H -0.8774 6.5152 2.2717
H 0.5494 6.3632 0.2572
H 0.7889 4.2532 -0.9434
*
