! B3LYP 6-31G* SP

* xyz 0 1
C 2.9609 -2.4355 2.7573
C 1.9441 -1.5194 2.1547
N 0.7203 -1.3330 2.6874
C 0.1344 -0.4846 1.8182
N -1.2087 -0.0144 1.9755
C -1.7947 0.9594 1.0939
C -1.0616 2.1069 0.7502
C -1.5957 3.0592 -0.1133
C -2.8655 2.8785 -0.6540
C -3.6207 1.7401 -0.3371
C -3.1055 0.7847 0.5800
C -3.8787 -0.4860 0.8913
C -5.3642 -0.4102 0.4990
O -5.9650 -1.6784 0.5811
C -5.5227 0.1784 -0.9060
C -5.0062 1.6164 -0.9271
O 0.9115 -0.1551 0.8116
C 2.0550 -0.7692 0.9912
C 3.1972 -0.6478 0.0593
C 2.9478 -0.4189 -1.3027
C 4.0059 -0.2852 -2.2060
C 5.3359 -0.3821 -1.7645
C 6.4779 -0.1871 -2.7297
F 7.5934 -0.8942 -2.3154
F 6.1302 -0.6300 -3.9942
F 6.7947 1.1569 -2.7944
C 5.5856 -0.5606 -0.3936
C 4.5269 -0.6952 0.5094
H 3.6596 -1.8533 3.3926
H 2.4553 -3.1946 3.3902
H 3.5235 -2.9658 1.9609
H -1.7796 -0.4272 2.7451
H -0.0754 2.2715 1.1651
H -1.0221 3.9419 -0.3651
H -3.2635 3.6305 -1.3246
H -3.8396 -0.7039 1.9784
H -3.3901 -1.3263 0.3515
H -5.8855 0.2562 1.2221
H -5.5289 -2.2642 -0.0921
H -4.9580 -0.4331 -1.6445
H -6.5957 0.1716 -1.1964
H -5.6982 2.2651 -0.3473
H -5.0050 1.9740 -1.9800
H 1.9310 -0.3498 -1.6701
H 3.7836 -0.1031 -3.2500
H 6.6009 -0.5845 -0.0177
H 4.7551 -0.7984 1.5601
*
