! B3LYP 6-31G* SP

* xyz 0 1
C -0.7982 0.7091 -2.8030
C -1.7326 -0.2809 -2.1013
C -2.1129 -1.4342 -3.0397
N -1.1450 -0.7859 -0.8366
C -0.1164 -1.7965 -0.8768
O -0.3865 -2.9609 -0.4742
C 1.2438 -1.5107 -1.3851
C 1.9088 -2.4958 -2.1358
C 3.2005 -2.2730 -2.6133
C 3.8479 -1.0699 -2.3389
C 3.2085 -0.0868 -1.5820
C 1.9036 -0.2965 -1.0903
O 1.2441 0.6673 -0.3081
C 1.8284 1.8696 0.1940
C 2.7850 1.5601 1.3124
C 4.1100 2.0249 1.2730
C 4.9887 1.7343 2.3213
C 4.5500 0.9846 3.4163
C 3.2306 0.5262 3.4663
C 2.3487 0.8148 2.4205
C -1.8271 -0.5672 0.4574
C -3.1972 -1.2680 0.4889
C -3.8689 -1.1721 1.8738
C -3.3762 0.0136 2.7271
C -3.0051 1.2548 1.8869
N -4.1916 1.8740 1.2863
C -1.9428 0.9389 0.8017
H -0.5000 1.5163 -2.1023
H -1.3240 1.1783 -3.6616
H 0.1083 0.2020 -3.1922
H -2.6726 0.2709 -1.8886
H -2.6577 -1.0416 -3.9247
H -2.7768 -2.1497 -2.5100
H -1.2093 -1.9755 -3.3928
H 1.4212 -3.4361 -2.3629
H 3.7005 -3.0349 -3.1973
H 4.8500 -0.8993 -2.7107
H 3.7426 0.8308 -1.3859
H 1.0207 2.5158 0.5954
H 2.3090 2.4394 -0.6299
H 4.4640 2.6086 0.4325
H 6.0100 2.0909 2.2852
H 5.2315 0.7609 4.2268
H 2.8908 -0.0516 4.3161
H 1.3279 0.4554 2.4714
H -1.2115 -1.0263 1.2666
H -3.8706 -0.8192 -0.2710
H -3.0729 -2.3393 0.2196
H -4.9693 -1.0933 1.7351
H -3.6810 -2.1116 2.4383
H -4.1530 0.2790 3.4768
H -2.4756 -0.3049 3.2975
H -2.5602 2.0021 2.5820
H -4.8504 2.1516 2.0498
H -4.6892 1.1859 0.6786
H -0.9526 1.2735 1.1751
H -2.1483 1.5486 -0.1022
*
