! B3LYP 6-31G* SP

* xyz 0 1
C -1.8041 -2.8613 0.8008
C -2.7979 -1.7515 0.6983
O -3.9101 -1.8325 -0.0082
C -4.5293 -0.6799 0.0994
C -3.8260 0.1827 0.8823
C -2.6934 -0.4961 1.2987
C -1.5496 0.0251 2.1177
C -0.5409 0.6892 1.2313
O -0.7830 1.8402 0.7788
N 0.6896 0.0189 0.9116
C 1.5872 0.4396 -0.1243
N 2.8527 -0.0191 -0.2153
C 3.5017 0.4777 -1.3059
C 4.9132 0.1257 -1.6008
C 5.3793 0.1182 -2.9256
C 6.7062 -0.2077 -3.2070
C 7.5910 -0.5370 -2.1772
F 8.8766 -0.8241 -2.5009
C 7.1456 -0.5568 -0.8384
C 8.0734 -0.8867 0.3132
F 9.2993 -1.3654 -0.1150
F 8.2842 0.2532 1.0691
F 7.4939 -1.8548 1.1130
C 5.8050 -0.2121 -0.5599
F 5.3844 -0.1704 0.7316
C 2.7328 1.3331 -2.1012
S 1.2085 1.4641 -1.4058
C -4.2962 1.4739 1.0912
O -3.6339 2.2877 1.7916
N -5.4900 1.8402 0.5112
C -6.0008 3.2113 0.6833
C -6.1758 0.9479 -0.2954
O -7.2417 1.3121 -0.8701
N -5.7070 -0.3333 -0.4857
C -6.4192 -1.2796 -1.3540
H -0.8471 -2.5513 0.3312
H -2.1866 -3.7618 0.2785
H -1.6296 -3.1114 1.8677
H -1.0810 -0.8099 2.6762
H -1.9157 0.7464 2.8746
H 0.9665 -0.8136 1.4808
H 4.7164 0.3501 -3.7502
H 7.0512 -0.2046 -4.2328
H 3.0555 1.8438 -2.9988
H -5.6578 3.6577 1.6430
H -7.1126 3.2213 0.7128
H -5.6516 3.8467 -0.1582
H -6.0888 -2.3248 -1.1731
H -6.2344 -1.0235 -2.4195
H -7.5102 -1.2376 -1.1525
*
