! B3LYP 6-31G* SP

* xyz 0 1
O -1.2162 0.1176 -2.7931
C -0.8551 0.1282 -1.5854
C 0.5888 0.1802 -1.2839
C 1.0943 -0.1418 -0.0847
C 2.5446 -0.1133 0.2263
C 3.0186 -0.8788 1.3032
C 4.3754 -0.8737 1.6387
C 5.2898 -0.1074 0.8978
C 6.7449 -0.0627 1.2913
F 7.1380 -1.2680 1.8471
F 7.5422 0.1847 0.1872
F 6.9348 0.9444 2.2189
C 4.8115 0.6942 -0.1517
C 3.4546 0.6891 -0.4886
N -1.8460 0.1421 -0.5436
C -3.2188 -0.2187 -0.7746
C -3.5100 -1.3831 -1.5079
C -4.8277 -1.8115 -1.6699
C -5.8714 -1.0910 -1.0932
C -5.6028 0.0664 -0.3607
C -4.2822 0.5251 -0.1981
C -4.0599 1.7953 0.5349
O -3.0296 2.4905 0.3259
O -5.0165 2.2539 1.4370
H 1.2504 0.4291 -2.1028
H 0.4313 -0.5056 0.6899
H 2.3366 -1.4862 1.8860
H 4.7091 -1.4678 2.4803
H 5.4865 1.3332 -0.7074
H 3.1235 1.3372 -1.2883
H -1.5760 0.4736 0.4087
H -2.7103 -1.9776 -1.9313
H -5.0385 -2.7118 -2.2327
H -6.8927 -1.4279 -1.2165
H -6.4347 0.6157 0.0625
H -4.8864 3.1266 1.9349
*
