! B3LYP 6-31G* SP

* xyz 0 1
C 1.2114 -1.2607 -1.9266
C -0.0793 -1.4419 -1.1757
C -0.8508 -2.5900 -1.4107
C -2.0366 -2.8011 -0.6976
C -2.8331 -3.9336 -0.9254
C -4.0137 -4.1150 -0.1972
C -4.4027 -3.1716 0.7590
C -3.6130 -2.0411 0.9929
C -2.4304 -1.8521 0.2690
N -1.6599 -0.7572 0.4960
C -0.5065 -0.5274 -0.1881
N 0.2427 0.6571 0.1040
C -0.0580 1.9051 -0.6015
C -1.4377 2.3875 -0.2415
C -2.5244 2.1127 -1.0845
C -3.8118 2.5156 -0.7261
C -4.0312 3.1782 0.4846
F -5.2908 3.5704 0.8028
C -2.9578 3.4342 1.3596
C -3.2008 4.1663 2.6585
F -4.2655 3.5915 3.3314
F -3.4973 5.4902 2.3882
F -2.0908 4.1197 3.4859
C -1.6592 3.0432 0.9800
S 1.4115 0.6167 1.3875
O 0.9367 -0.3206 2.4623
O 1.5690 1.9833 1.9938
C 2.9591 0.0797 0.7483
C 3.4778 -1.1753 1.0909
C 4.6942 -1.6050 0.5529
C 5.4085 -0.7849 -0.3388
C 6.6949 -1.2355 -0.9138
O 7.1627 -2.3692 -0.6216
O 7.4024 -0.4102 -1.7843
C 4.8802 0.4723 -0.6798
C 3.6638 0.8996 -0.1400
H 1.4972 -0.1918 -2.0019
H 2.0204 -1.8169 -1.4090
H 1.1144 -1.6538 -2.9609
H -0.5273 -3.3155 -2.1496
H -2.5449 -4.6730 -1.6629
H -4.6280 -4.9882 -0.3738
H -5.3172 -3.3166 1.3194
H -3.9208 -1.3153 1.7354
H 0.6870 2.6880 -0.3431
H 0.0256 1.7415 -1.6981
H -2.3760 1.5851 -2.0193
H -4.6435 2.3091 -1.3877
H -0.8176 3.2413 1.6304
H 2.9399 -1.8273 1.7661
H 5.0729 -2.5801 0.8326
H 8.2836 -0.7096 -2.1844
H 5.4036 1.1250 -1.3667
H 3.2671 1.8670 -0.4210
*
