! B3LYP 6-31G* SP

* xyz 0 1
N -2.3971 -0.9281 -2.9629
C -1.2349 -0.7693 -2.1488
O -0.0968 -0.9450 -2.6603
C -1.3854 -0.3864 -0.6922
C -2.1180 -1.4409 0.1178
C -2.9097 -1.0389 1.2087
C -3.5482 -1.9893 2.0106
C -3.3938 -3.3508 1.7413
C -2.5963 -3.7649 0.6723
C -1.9555 -2.8188 -0.1329
N -0.0930 -0.0503 -0.0534
C 0.0622 1.2572 0.5466
O 0.4680 1.3528 1.7367
C -0.2426 2.4933 -0.2096
C -0.0994 2.5342 -1.6076
C -0.3825 3.7073 -2.3135
C -0.8035 4.8513 -1.6314
C -0.9360 4.8258 -0.2410
C -0.6517 3.6552 0.4692
C 0.9136 -1.1079 0.1953
C 0.8371 -1.6586 1.6412
C 2.1910 -1.3703 2.3184
C 3.0028 -0.7327 1.2547
C 4.3255 -0.2935 1.3629
F 5.0101 -0.4346 2.5250
C 4.9350 0.3001 0.2468
C 4.2187 0.4460 -0.9547
F 4.8107 1.0212 -2.0301
C 2.8915 -0.0008 -1.0420
C 2.3020 -0.5854 0.0831
H -2.3044 -1.1899 -3.9692
H -3.3506 -0.7861 -2.5622
H -2.0329 0.5192 -0.7050
H -3.0265 0.0121 1.4428
H -4.1577 -1.6696 2.8461
H -3.8865 -4.0851 2.3655
H -2.4686 -4.8205 0.4714
H -1.3293 -3.1653 -0.9447
H 0.2496 1.6689 -2.1525
H -0.2693 3.7308 -3.3897
H -1.0213 5.7588 -2.1794
H -1.2565 5.7145 0.2874
H -0.7635 3.6540 1.5463
H 0.7957 -1.9467 -0.5227
H 0.6581 -2.7560 1.6153
H 0.0083 -1.1952 2.2186
H 2.0646 -0.6701 3.1721
H 2.6740 -2.3104 2.6611
H 5.9582 0.6470 0.3113
H 2.3350 0.1116 -1.9627
*
