! B3LYP 6-31G* SP

* xyz 0 1
C 0.4569 2.1999 1.0233
C -0.3696 1.8129 -0.1834
C -0.8052 0.4785 -0.3625
N -0.4763 -0.5445 0.5843
C 0.5348 -1.5470 0.2478
C 1.8959 -0.9106 0.2281
C 2.6526 -0.8171 1.4162
C 3.8798 -0.1379 1.4229
C 4.3300 0.4500 0.2395
C 3.5960 0.3706 -0.9152
C 2.3739 -0.3027 -0.9497
C 4.2390 1.0908 -2.0367
C 5.5464 1.6363 -1.4298
C 5.5761 1.2274 0.0559
S -1.4800 -0.7593 1.9823
O -0.6157 -1.0221 3.1840
O -2.2799 0.4878 2.2388
C -2.5752 -2.1062 1.6997
C -3.6721 -1.9417 0.8458
C -4.5358 -3.0113 0.5939
C -4.3103 -4.2650 1.1909
C -5.2199 -5.4015 0.9268
O -6.2162 -5.2590 0.1670
O -4.9834 -6.6413 1.5157
C -3.2021 -4.4250 2.0416
C -2.3396 -3.3534 2.2914
N -1.5221 0.1357 -1.4642
C -1.8569 1.0329 -2.4222
C -1.4560 2.3661 -2.3065
C -1.7946 3.2957 -3.3020
C -1.3856 4.6247 -3.1891
C -0.6369 5.0349 -2.0863
C -0.2933 4.1203 -1.0872
C -0.6992 2.7702 -1.1780
H 0.6173 1.3607 1.7277
H -0.0561 3.0072 1.5864
H 1.4565 2.5530 0.6925
H 0.5193 -2.3775 0.9865
H 0.3026 -1.9952 -0.7428
H 2.2838 -1.2543 2.3355
H 4.4593 -0.0598 2.3336
H 1.7961 -0.3328 -1.8652
H 3.5848 1.9206 -2.3818
H 4.4486 0.3909 -2.8742
H 6.4229 1.2057 -1.9619
H 5.5821 2.7437 -1.5252
H 6.4613 0.5928 0.2773
H 5.5687 2.1225 0.7145
H -3.8558 -0.9858 0.3712
H -5.3772 -2.8572 -0.0702
H -5.5997 -7.4259 1.3409
H -2.9984 -5.3786 2.5123
H -1.4866 -3.5005 2.9417
H -2.4326 0.7000 -3.2770
H -2.3733 2.9938 -4.1670
H -1.6482 5.3384 -3.9594
H -0.3206 6.0669 -2.0046
H 0.2900 4.4826 -0.2519
*
