! B3LYP 6-31G* SP

* xyz 0 1
O 0.6731 1.4180 2.3034
C 1.0778 0.5542 1.4774
N 0.1886 -0.4920 1.0488
C -1.2411 -0.4909 1.3877
C -2.0430 0.5803 0.6627
C -3.3807 0.7899 1.0381
C -4.1555 1.7679 0.4102
C -3.6074 2.5677 -0.6074
C -4.4282 3.6296 -1.2990
F -4.4719 3.3680 -2.6565
F -3.8455 4.8674 -1.0961
F -5.7258 3.6702 -0.8181
C -2.2656 2.3711 -0.9783
F -1.7034 3.1287 -1.9545
C -1.4916 1.3918 -0.3489
C -1.8376 -1.8844 1.2370
N -2.0777 -2.5583 2.3984
C -2.6086 -3.8048 2.4358
C -2.9415 -4.4511 1.2539
C -2.7107 -3.8120 0.0394
C -2.1291 -2.5281 -0.0076
C -1.9379 -1.8777 -1.3681
F -1.9561 -2.8211 -2.3818
F -2.9639 -0.9817 -1.6007
F -0.7254 -1.2261 -1.4490
C 2.4657 0.6329 0.9641
C 3.4539 1.3047 1.7073
C 4.7658 1.3946 1.2327
C 5.1073 0.8210 0.0017
C 6.4132 0.8972 -0.5000
C 6.7164 0.3197 -1.7349
C 5.7107 -0.3277 -2.4569
N 4.4471 -0.3953 -1.9589
C 4.1210 0.1555 -0.7580
C 2.8097 0.0671 -0.2781
H 0.6040 -1.3451 0.6115
H -1.3129 -0.2315 2.4688
H -3.8272 0.1889 1.8209
H -5.1830 1.8942 0.7258
H -0.4666 1.2681 -0.6695
H -2.7795 -4.2892 3.3879
H -3.3795 -5.4407 1.2772
H -2.9941 -4.3314 -0.8670
H 3.2137 1.7529 2.6636
H 5.5105 1.9116 1.8262
H 7.1932 1.4009 0.0583
H 7.7225 0.3743 -2.1302
H 5.9353 -0.7771 -3.4149
H 2.0616 -0.4224 -0.8887
*
