! B3LYP 6-31G* SP

* xyz 0 1
C -6.2193 0.9142 -1.6935
C -5.6068 0.9784 -0.2893
C -6.3459 1.9944 0.5894
C -4.1226 1.2883 -0.3534
C -3.6572 2.4976 -0.9027
C -2.2899 2.7782 -0.9375
C -1.3710 1.8554 -0.4353
C -1.8095 0.6339 0.0934
N -0.8438 -0.2891 0.6235
C -0.9369 -1.7183 0.4756
O -1.8570 -2.2204 -0.2259
N 0.0240 -2.5913 1.1006
C -0.2115 -4.0168 1.2534
C 0.8441 -4.5077 2.2340
C 1.9299 -3.4355 2.2534
C 1.2675 -2.1589 1.7268
C 2.1573 -1.4594 0.7375
N 2.3136 -1.8541 -0.5450
C 3.2000 -1.0723 -1.2174
C 3.7736 -0.0432 -0.4645
C 4.7684 0.9580 -0.9289
C 5.4244 1.7907 -0.0010
C 6.3605 2.7360 -0.4312
C 6.6527 2.8653 -1.7898
C 6.0082 2.0502 -2.7216
C 5.0713 1.1024 -2.2978
S 3.1344 -0.1419 1.0948
C -3.1888 0.3645 0.1508
H -5.6691 0.1757 -2.3152
H -6.1810 1.9050 -2.1939
H -7.2807 0.5921 -1.6306
H -5.7571 -0.0220 0.1750
H -5.8881 2.0263 1.6013
H -6.3075 3.0117 0.1453
H -7.4108 1.6978 0.6997
H -4.3511 3.2286 -1.2966
H -1.9415 3.7146 -1.3537
H -0.3134 2.0861 -0.4680
H 0.0112 0.1203 1.0582
H -0.0969 -4.5197 0.2688
H -1.2306 -4.2034 1.6575
H 1.2531 -5.4948 1.9268
H 0.3964 -4.5986 3.2482
H 2.7679 -3.7631 1.5971
H 2.3240 -3.2862 3.2823
H 1.0321 -1.4818 2.5773
H 3.4372 -1.2669 -2.2531
H 5.2226 1.7107 1.0590
H 6.8605 3.3687 0.2908
H 7.3773 3.5981 -2.1206
H 6.2324 2.1545 -3.7754
H 4.5816 0.4980 -3.0479
H -3.5383 -0.5505 0.6109
*
