! B3LYP 6-31G* SP

* xyz 0 1
O 7.0469 0.6495 -1.3687
C 6.3142 -0.0424 -0.6108
O 6.8852 -0.6961 0.4782
C 4.8630 -0.1598 -0.8740
C 4.0483 -0.9316 -0.0274
C 2.6770 -1.0435 -0.2736
C 2.0995 -0.3858 -1.3658
S 0.3685 -0.5301 -1.6522
O -0.0772 0.4442 -2.7065
O 0.0816 -1.9284 -2.1232
N -0.4931 -0.2013 -0.1788
C -0.1349 0.9798 0.6118
C -1.3417 1.8509 0.8250
C -1.6475 2.8721 -0.0898
C -2.7965 3.6501 0.0825
C -3.6504 3.4091 1.1624
C -3.3579 2.3882 2.0709
C -2.2095 1.6085 1.9029
C -1.2816 -1.2397 0.4200
N -0.8000 -1.8612 1.5318
C -1.4694 -2.8658 2.1511
C -2.6906 -3.3037 1.6448
Cl -3.5522 -4.6178 2.4245
C -3.2210 -2.6862 0.5118
C -2.5422 -1.6210 -0.1069
C -3.1513 -0.9717 -1.3330
F -2.8102 0.3639 -1.4191
F -2.7114 -1.6263 -2.4673
F -4.5330 -1.0466 -1.2881
C 2.9048 0.3832 -2.2152
C 4.2769 0.4964 -1.9717
H 7.8776 -0.6223 0.6674
H 4.4688 -1.4491 0.8256
H 2.0640 -1.6411 0.3894
H 0.6584 1.5658 0.0988
H 0.2894 0.6644 1.5899
H -1.0018 3.0592 -0.9389
H -3.0278 4.4364 -0.6244
H -4.5407 4.0106 1.2928
H -4.0232 2.1981 2.9031
H -2.0000 0.8133 2.6077
H -1.0439 -3.3292 3.0313
H -4.1675 -3.0372 0.1197
H 2.4748 0.8964 -3.0654
H 4.8778 1.0977 -2.6425
*
