! B3LYP 6-31G* SP

* xyz 0 1
C 5.2619 2.1851 -0.2104
C 5.8047 0.7560 -0.2113
C 4.6966 -0.2991 -0.3519
C 4.1213 -0.3625 -1.7756
C 3.0384 -1.4451 -1.9229
C 1.7812 -1.1153 -1.1353
C 0.9961 -0.0493 -1.5802
C -0.1865 0.3009 -0.9376
C -0.6267 -0.4018 0.2074
C 0.1627 -1.4958 0.6704
O -0.2244 -2.2109 1.8053
C 1.3530 -1.8614 -0.0117
C 2.1126 -3.0463 0.4364
O 3.2957 -2.9241 0.8517
O 1.5127 -4.3022 0.4114
C -1.8703 0.1634 0.9167
C -2.5558 -0.7357 1.9458
C -3.8968 -0.8381 2.0811
C -4.4604 -1.6740 3.2007
C -4.8468 -0.1573 1.1247
C -4.2081 1.0749 0.4856
C -2.8685 0.6729 -0.1604
C -2.2163 1.7890 -1.0426
C -3.0628 2.0437 -2.3060
C -2.0319 3.1293 -0.2979
O -0.9295 1.3535 -1.4917
H 4.4875 2.3056 0.5778
H 6.0916 2.8935 -0.0015
H 4.8271 2.4447 -1.1986
H 6.5517 0.6404 -1.0265
H 6.3318 0.5851 0.7527
H 3.8885 -0.0908 0.3825
H 5.1365 -1.2892 -0.1048
H 3.6997 0.6225 -2.0651
H 4.9443 -0.5948 -2.4864
H 2.7649 -1.5179 -2.9984
H 3.4630 -2.4351 -1.6598
H 1.2941 0.5105 -2.4589
H 0.3284 -2.9421 2.2344
H 2.0182 -5.1253 0.7171
H -1.5189 1.0302 1.5124
H -1.9662 -1.1147 2.7714
H -4.1482 -1.2514 4.1796
H -4.0868 -2.7168 3.1173
H -5.5700 -1.6983 3.1642
H -5.1436 -0.8815 0.3350
H -5.7665 0.1595 1.6624
H -4.0485 1.8503 1.2667
H -4.9138 1.4756 -0.2703
H -3.0804 -0.1902 -0.8354
H -3.2532 1.0910 -2.8477
H -2.5194 2.7230 -2.9983
H -4.0355 2.5214 -2.0629
H -1.5577 3.8729 -0.9743
H -3.0061 3.5488 0.0321
H -1.3648 3.0229 0.5815
*
