! B3LYP 6-31G* SP

* xyz 0 1
C -2.9537 0.1770 0.9917
C -1.9895 -0.9352 0.6429
C -0.7699 -0.6551 -0.0182
N -0.3932 0.6835 -0.3622
C 0.2844 1.5373 0.6166
C 1.5697 0.8986 1.0647
C 1.6594 0.2903 2.3415
C 2.8381 -0.3621 2.7354
C 3.8989 -0.4092 1.8339
C 3.8199 0.1660 0.5989
C 2.6678 0.8318 0.1813
C 5.0900 -0.0435 -0.1440
C 5.9461 -0.8707 0.8740
C 6.2787 -2.2634 0.3179
C 7.2310 -0.1263 1.2565
O 5.1211 -1.0127 2.0342
S -0.6932 1.2498 -1.9753
O 0.4202 2.1580 -2.4193
O -0.7481 0.0810 -2.9210
C -2.2229 2.1172 -2.0046
C -3.4081 1.4505 -2.3383
C -4.6287 2.1311 -2.3141
C -4.6810 3.4888 -1.9485
C -5.9715 4.2117 -1.9149
O -7.0413 3.6221 -2.2295
O -6.0177 5.5512 -1.5349
C -3.4876 4.1495 -1.6084
C -2.2684 3.4663 -1.6339
N 0.0759 -1.6658 -0.3487
C -0.1918 -2.9621 -0.0635
C -1.3755 -3.3063 0.5944
C -1.6550 -4.6496 0.8920
C -2.8402 -4.9917 1.5440
C -3.7518 -3.9993 1.9051
C -3.4859 -2.6578 1.6168
C -2.2930 -2.2870 0.9556
H -2.5968 1.1791 0.6827
H -3.1121 0.2039 2.0913
H -3.9230 0.0013 0.4793
H 0.5077 2.5316 0.1770
H -0.3870 1.7143 1.4822
H 0.8177 0.3165 3.0232
H 2.9184 -0.8234 3.7132
H 2.6220 1.2789 -0.8039
H 5.5473 0.9413 -0.3884
H 4.8876 -0.5985 -1.0874
H 5.3460 -2.8040 0.0546
H 6.9114 -2.1776 -0.5925
H 6.8235 -2.8613 1.0773
H 7.8829 0.0006 0.3648
H 7.7881 -0.6953 2.0324
H 6.9864 0.8788 1.6669
H -3.3916 0.4011 -2.6038
H -5.5311 1.5922 -2.5736
H -6.8965 6.0541 -1.5122
H -3.4947 5.1928 -1.3185
H -1.3607 3.9875 -1.3569
H 0.5233 -3.7224 -0.3524
H -0.9574 -5.4333 0.6209
H -3.0530 -6.0287 1.7715
H -4.6696 -4.2704 2.4118
H -4.2214 -1.9228 1.9149
*
