! B3LYP 6-31G* SP

* xyz 0 1
C 5.8807 0.9103 1.1446
C 5.2416 1.3519 -0.1668
O 3.8600 0.9991 -0.1972
C 3.4015 -0.3047 -0.4184
O 4.2150 -1.2383 -0.6580
C 1.9582 -0.5768 -0.3760
S 0.7682 0.5711 -0.0705
C -0.5010 -0.5349 -0.2019
C -1.9404 -0.2233 -0.0442
C -2.3708 1.0844 0.2450
C -3.7321 1.3672 0.3918
C -4.6871 0.3522 0.2396
C -6.1442 0.6491 0.4365
C -4.2626 -0.9562 -0.0305
C -2.9018 -1.2408 -0.1777
N -0.0320 -1.7748 -0.4768
C 1.3247 -1.8017 -0.5734
O 2.0144 -2.9777 -0.8500
H 5.3376 1.3619 2.0016
H 5.8517 -0.1954 1.2370
H 6.9398 1.2426 1.1742
H 5.7767 0.8989 -1.0296
H 5.3261 2.4558 -0.2503
H -1.6595 1.8914 0.3623
H -4.0410 2.3791 0.6237
H -6.7696 -0.0326 -0.1785
H -6.3758 1.6928 0.1345
H -6.4068 0.5149 1.5066
H -4.9851 -1.7572 -0.1282
H -2.6032 -2.2592 -0.3926
H 1.5170 -3.8493 -0.9872
*
