! B3LYP 6-31G* SP

* xyz 0 1
C -1.6808 2.1297 -1.3993
C -0.5891 2.4215 -0.3933
C -0.0939 1.3930 0.4451
N -0.5352 0.0363 0.3035
C -0.0501 -0.7706 -0.8194
C 1.3785 -1.1570 -0.6003
C 2.4808 -0.3398 -0.8576
C 3.6849 -0.9414 -0.4793
C 4.9596 -0.3815 -0.6036
C 6.0708 -1.1239 -0.1642
Cl 7.6830 -0.4461 -0.3074
C 5.8947 -2.4089 0.3925
C 4.6088 -2.9603 0.5158
C 3.5250 -2.2059 0.0723
S 1.8934 -2.6058 0.1102
S -1.2868 -0.7401 1.6625
O -0.2375 -1.4436 2.4770
O -1.9630 0.2876 2.5264
C -2.5036 -1.8798 1.0969
C -2.3628 -3.2546 1.3303
C -3.3244 -4.1517 0.8546
C -4.4416 -3.6856 0.1397
C -5.4479 -4.6372 -0.3797
O -6.4395 -4.2227 -1.0386
O -5.3104 -6.0023 -0.1410
C -4.5735 -2.3032 -0.0955
C -3.6116 -1.4090 0.3831
N 0.8393 1.6749 1.3923
C 1.3529 2.9168 1.5609
C 0.9452 3.9645 0.7305
C 1.5046 5.2430 0.8797
C 1.1090 6.2836 0.0395
C 0.1583 6.0563 -0.9562
C -0.4085 4.7891 -1.1154
C -0.0315 3.7219 -0.2693
H -2.4759 2.9012 -1.3438
H -1.2496 2.1109 -2.4207
H -2.1815 1.1595 -1.2088
H -0.1362 -0.2007 -1.7689
H -0.6663 -1.6867 -0.9325
H 2.4089 0.6524 -1.2879
H 5.0901 0.6066 -1.0297
H 6.7528 -2.9763 0.7303
H 4.4652 -3.9446 0.9459
H -1.5069 -3.6372 1.8738
H -3.1915 -5.2092 1.0457
H -5.9929 -6.6624 -0.4935
H -5.4164 -1.9130 -0.6527
H -3.7269 -0.3489 0.1905
H 2.0994 3.0771 2.3288
H 2.2513 5.4348 1.6418
H 1.5447 7.2676 0.1559
H -0.1381 6.8649 -1.6112
H -1.1275 4.6568 -1.9118
*
