! B3LYP 6-31G* SP

* xyz 0 1
O 7.3194 1.1308 -0.5297
C 6.7459 1.0879 0.5926
O 7.4604 1.4319 1.7370
C 5.3281 0.6787 0.6945
C 4.5857 0.3521 -0.4511
C 3.2471 -0.0281 -0.3384
C 2.6501 -0.0923 0.9308
C 1.2341 -0.4767 1.1093
O 0.6503 -0.1683 2.1840
N 0.5194 -1.2037 0.0954
C -0.9405 -1.3623 0.1430
C -1.6310 -0.0238 -0.0097
C -2.7443 0.2874 0.7867
C -3.4081 1.5078 0.6332
C -2.9749 2.4369 -0.3326
O -3.6076 3.6753 -0.5301
C -4.7436 4.1460 0.1926
F -4.4454 4.2429 1.5401
F -5.8150 3.2908 0.0068
F -5.0874 5.3981 -0.2785
C -1.8719 2.1201 -1.1357
F -1.4439 2.9990 -2.0765
C -1.2081 0.8999 -0.9816
C -1.4212 -2.3003 -0.9423
N -0.9860 -2.1250 -2.2229
C -1.4119 -2.9120 -3.2460
C -2.3324 -3.9325 -3.0056
C -2.8102 -4.1284 -1.7097
C -2.3627 -3.3102 -0.6697
F -2.8487 -3.4992 0.5832
N 3.3854 0.2408 2.0272
C 4.6890 0.6165 1.9421
H 8.4318 1.7140 1.6786
H 5.0362 0.3984 -1.4349
H 2.6882 -0.2429 -1.2392
H 1.0615 -1.6756 -0.6630
H -1.1910 -1.7962 1.1364
H -3.1011 -0.4166 1.5283
H -4.2583 1.7134 1.2675
H -0.3637 0.6744 -1.6211
H -1.0383 -2.7422 -4.2467
H -2.6761 -4.5614 -3.8165
H -3.5307 -4.9116 -1.5127
H 5.2214 0.8661 2.8506
*
