! B3LYP 6-31G* SP

* xyz 0 1
C 0.4260 1.6889 -1.6628
C -0.6219 1.8015 -0.5772
C -1.0750 0.6512 0.1113
N -0.5702 -0.6517 -0.2036
C 0.3360 -1.3246 0.7271
C 1.6666 -0.6250 0.7406
C 2.6301 -0.9255 -0.2311
C 3.8356 -0.2199 -0.2743
C 4.0976 0.8095 0.6560
C 5.3773 1.6286 0.6711
C 6.0025 1.9596 -0.6769
C 6.6621 0.9351 0.2380
C 3.1207 1.1092 1.6190
C 1.9157 0.4038 1.6593
S -1.2606 -1.5338 -1.5288
O -0.1562 -2.1081 -2.3719
O -2.0873 -0.6162 -2.3862
C -2.2884 -2.8120 -0.8925
C -3.4597 -2.4784 -0.2032
C -4.2737 -3.4816 0.3303
C -3.9236 -4.8361 0.1841
C -4.7784 -5.9025 0.7504
O -5.8447 -5.6117 1.3574
O -4.4118 -7.2398 0.6189
C -2.7439 -5.1638 -0.5065
C -1.9315 -4.1582 -1.0392
N -1.9884 0.7685 1.1096
C -2.5097 1.9618 1.4825
C -2.1068 3.1353 0.8408
C -2.6426 4.3734 1.2281
C -2.2327 5.5451 0.5915
C -1.2864 5.4910 -0.4316
C -0.7448 4.2652 -0.8276
C -1.1479 3.0650 -0.2008
H 0.7275 0.6445 -1.8696
H 0.0323 2.1102 -2.6109
H 1.3380 2.2436 -1.3586
H 0.4773 -2.3869 0.4313
H -0.1115 -1.3328 1.7448
H 2.4412 -1.6982 -0.9661
H 4.5465 -0.4814 -1.0444
H 5.5144 2.4117 1.4481
H 5.5187 1.5299 -1.5777
H 6.5325 2.9350 -0.7091
H 7.5775 1.3115 0.7416
H 6.5809 -0.1152 -0.1086
H 3.2873 1.9005 2.3395
H 1.1704 0.6697 2.3991
H -3.7403 -1.4405 -0.0753
H -5.1741 -3.1964 0.8596
H -4.9890 -7.9776 1.0043
H -2.4456 -6.1968 -0.6337
H -1.0238 -4.4332 -1.5600
H -3.2372 1.9909 2.2841
H -3.3762 4.4342 2.0231
H -2.6480 6.4981 0.8930
H -0.9703 6.4035 -0.9207
H -0.0128 4.2719 -1.6236
*
