! B3LYP 6-31G* SP

* xyz 0 1
C -0.3774 -1.9771 -1.4451
C -1.2635 -1.6646 -0.2592
C -1.1828 -0.4110 0.3927
N -0.2660 0.5981 -0.0461
C 0.9252 0.8921 0.7507
C 1.8819 -0.2645 0.6803
C 1.8243 -1.2949 1.6530
C 2.6471 -2.4291 1.5452
C 3.5078 -2.5069 0.4533
C 4.3939 -3.4908 0.0691
Cl 4.7224 -5.0054 0.8887
C 4.9618 -3.0529 -1.1200
N 4.4550 -1.8433 -1.4581
C 4.7742 -1.0762 -2.6579
C 3.5675 -1.5193 -0.4963
C 2.7630 -0.3810 -0.4164
S -0.7199 1.6529 -1.3464
O -1.9138 1.0960 -2.0711
O 0.4209 1.7607 -2.3196
C -1.1288 3.2315 -0.6870
C -0.3105 4.3423 -0.9281
C -0.6336 5.5866 -0.3788
C -1.7777 5.7356 0.4244
C -2.1158 7.0533 1.0055
O -3.1413 7.1892 1.7267
O -1.3041 8.1575 0.7602
C -2.5913 4.6141 0.6667
C -2.2668 3.3718 0.1150
N -1.9606 -0.1529 1.4763
C -2.8397 -1.0560 1.9724
C -2.9669 -2.3127 1.3759
C -3.8714 -3.2529 1.8932
C -3.9901 -4.5109 1.3023
C -3.2087 -4.8400 0.1951
C -2.3045 -3.9135 -0.3310
C -2.1698 -2.6321 0.2479
H -1.0026 -2.2569 -2.3183
H 0.3038 -2.8158 -1.1901
H 0.2511 -1.1210 -1.7561
H 0.6303 1.0918 1.8043
H 1.4253 1.8127 0.3773
H 1.1291 -1.2255 2.4803
H 2.5997 -3.2213 2.2808
H 5.6940 -3.5948 -1.7046
H 5.0848 -0.0485 -2.3745
H 5.6048 -1.5562 -3.2178
H 3.8804 -1.0222 -3.3145
H 2.7989 0.3795 -1.1861
H 0.5797 4.2484 -1.5363
H 0.0141 6.4300 -0.5814
H -1.5267 9.0641 1.1530
H -3.4775 4.6954 1.2835
H -2.9008 2.5173 0.3163
H -3.4351 -0.7906 2.8375
H -4.4843 -3.0151 2.7548
H -4.6883 -5.2334 1.7049
H -3.3031 -5.8183 -0.2581
H -1.7176 -4.2135 -1.1880
*
