! B3LYP 6-31G* SP

* xyz 0 1
C 5.6685 0.2409 0.0599
C 4.6021 1.3046 -0.1453
O 3.3132 0.7071 -0.0591
C 2.1295 1.4350 -0.2058
O 2.1720 2.6762 -0.4263
C 0.8223 0.7616 -0.1066
S -0.6588 1.5412 -0.2855
C -1.5665 0.1424 -0.0478
C -3.0447 0.0540 -0.0664
C -3.6810 -1.1829 0.1489
C -5.0762 -1.2743 0.1329
C -5.8507 -0.1353 -0.0975
C -5.2313 1.0977 -0.3124
C -3.8363 1.1951 -0.2975
N -0.7585 -0.9205 0.1679
C 0.5643 -0.5938 0.1399
C 1.6315 -1.6321 0.3554
O 1.0673 -2.8962 0.5807
H 6.6764 0.7022 -0.0064
H 5.5499 -0.2267 1.0603
H 5.5774 -0.5428 -0.7218
H 4.7070 2.0862 0.6382
H 4.7344 1.7696 -1.1463
H -3.1017 -2.0797 0.3296
H -5.5572 -2.2295 0.2994
H -6.9305 -0.2082 -0.1094
H -5.8327 1.9798 -0.4908
H -3.3829 2.1629 -0.4669
H 2.2751 -1.3411 1.2162
H 2.2664 -1.6903 -0.5533
H 0.7514 -2.9032 1.5222
*
