! B3LYP 6-31G* SP

* xyz 0 1
C 4.8647 -3.1054 -0.0613
O 3.5528 -2.6234 0.2088
C 3.2733 -1.4237 0.8805
C 4.2875 -0.5709 1.3567
C 3.9564 0.6154 2.0163
C 2.6174 0.9632 2.2066
C 1.5937 0.1242 1.7363
C 0.1475 0.5048 1.9386
N -0.5747 0.5838 0.6562
C -1.8311 -0.1158 0.4961
O -2.8109 0.4699 -0.0397
C -1.9957 -1.5495 0.9191
C -2.3891 -2.3966 -0.2613
C -1.4328 -2.7401 -1.2327
C -1.8029 -3.4955 -2.3502
C -3.1279 -3.9118 -2.5071
C -4.0862 -3.5695 -1.5489
C -3.7214 -2.8106 -0.4313
C -0.1313 1.5732 -0.3524
C -0.3617 1.0470 -1.7514
N 0.5352 0.0857 -2.3073
O -1.3702 1.4098 -2.4155
C -0.7333 2.9596 -0.1475
C -0.2701 4.0197 -0.9517
C -0.7753 5.3126 -0.7900
C -1.7424 5.5690 0.1827
C -2.2041 4.5334 0.9972
C -1.7025 3.2374 0.8408
C 1.9330 -1.0700 1.0787
H 5.4127 -3.2731 0.8900
H 5.4154 -2.3796 -0.6971
H 4.7918 -4.0702 -0.6041
H 5.3325 -0.8148 1.2227
H 4.7403 1.2670 2.3828
H 2.3814 1.8885 2.7186
H 0.0707 1.4876 2.4513
H -0.3195 -0.2314 2.6248
H -1.0581 -1.9561 1.3468
H -2.7668 -1.6020 1.7180
H -0.4047 -2.4180 -1.1269
H -1.0627 -3.7555 -3.0961
H -3.4130 -4.4962 -3.3724
H -5.1130 -3.8889 -1.6736
H -4.4767 -2.5455 0.2978
H 0.9679 1.7092 -0.2570
H 1.3624 -0.2474 -1.7647
H 0.3639 -0.3062 -3.2596
H 0.4841 3.8415 -1.7079
H -0.4133 6.1172 -1.4172
H -2.1305 6.5713 0.3091
H -2.9484 4.7358 1.7567
H -2.0728 2.4671 1.5017
H 1.1585 -1.7258 0.7071
*
