! B3LYP 6-31G* SP

* xyz 0 1
C 0.7368 0.1215 -2.0427
C 0.5960 0.5364 -0.5690
C 1.5728 -0.1404 0.3842
C 2.3656 -1.2517 0.0151
C 3.2490 -1.8252 0.9293
F 3.9943 -2.8989 0.5666
C 3.3541 -1.3058 2.2202
C 2.5831 -0.2059 2.5995
F 2.6874 0.2989 3.8536
C 1.7024 0.3752 1.6884
N -0.8073 0.4356 -0.0737
C -1.3720 1.5719 0.6339
O -2.0585 1.3845 1.6800
C -1.1536 2.9640 0.1845
C -1.1387 3.2889 -1.1829
C -0.9224 4.6078 -1.5936
C -0.7327 5.6145 -0.6435
C -0.7694 5.3045 0.7195
C -0.9844 3.9868 1.1336
C -1.6280 -0.8126 -0.1377
C -2.3994 -0.9191 -1.4397
N -3.3647 -1.9620 -1.6212
O -2.2553 -0.0589 -2.3455
C -0.8409 -2.0598 0.2447
C -0.4470 -3.0335 -0.6975
C 0.3021 -4.1410 -0.2969
C 0.6638 -4.2942 1.0413
C 0.2655 -3.3484 1.9872
C -0.4874 -2.2429 1.5943
H 0.4242 -0.9227 -2.2113
H 1.7859 0.2363 -2.3735
H 0.1276 0.7807 -2.6852
H 0.9082 1.6022 -0.5686
H 2.3031 -1.6914 -0.9705
H 4.0338 -1.7542 2.9263
H 1.1164 1.2321 1.9986
H -1.3081 2.5277 -1.9305
H -0.9067 4.8525 -2.6493
H -0.5653 6.6351 -0.9626
H -0.6312 6.0861 1.4541
H -1.0030 3.7639 2.1934
H -2.4358 -0.7565 0.6271
H -3.5380 -2.6647 -0.8692
H -3.9582 -1.9814 -2.4815
H -0.7098 -2.9431 -1.7419
H 0.6089 -4.8775 -1.0276
H 1.2575 -5.1422 1.3450
H 0.5534 -3.4621 3.0226
H -0.7740 -1.5110 2.3390
*
