! B3LYP def2-TZVP SP

* xyz 0 1
O 2.0251 1.0150 1.6777
C 1.7046 0.5629 0.5444
N 2.7211 0.3455 -0.4491
C 4.1191 0.1972 -0.1455
C 5.0755 0.6058 -1.0859
C 6.4405 0.4528 -0.8246
C 6.8713 -0.1292 0.3829
O 8.2280 -0.3070 0.6993
C 9.3239 0.0689 -0.1320
F 9.2659 -0.6125 -1.3345
F 9.3029 1.4330 -0.3611
F 10.5040 -0.2569 0.5078
C 5.9150 -0.5557 1.3113
C 4.5503 -0.4020 1.0507
N 0.3167 0.3124 0.2421
C -0.7219 1.1595 0.8456
C -1.9786 0.3397 1.1571
C -2.4758 -0.4797 -0.0600
C -1.3145 -1.3598 -0.5716
C -0.0499 -0.5509 -0.8889
C -3.0332 0.4119 -1.2043
C -4.3216 1.1554 -0.7929
O -4.9229 1.7318 -1.9265
C -5.2942 0.2541 -0.0572
C -6.6293 0.6522 0.1261
C -7.5228 -0.1711 0.8155
C -7.0903 -1.3909 1.3395
C -5.7579 -1.7871 1.1885
Br -5.1824 -3.4509 1.9370
C -4.8525 -0.9604 0.5074
O -3.5151 -1.3565 0.3834
H 2.4425 0.4043 -1.4544
H 4.7618 1.0533 -2.0208
H 7.1477 0.7887 -1.5695
H 6.2320 -1.0172 2.2381
H 3.8362 -0.7727 1.7739
H -0.9654 1.9940 0.1551
H -0.3653 1.6134 1.7951
H -2.7741 1.0121 1.5395
H -1.7366 -0.3627 1.9855
H -1.6284 -1.9221 -1.4781
H -1.0609 -2.1137 0.2068
H -0.2034 0.0703 -1.7966
H 0.7644 -1.2761 -1.1055
H -2.2831 1.1541 -1.5466
H -3.2647 -0.2402 -2.0758
H -4.0465 1.9846 -0.1078
H -5.2358 0.9914 -2.5104
H -6.9798 1.5976 -0.2688
H -8.5522 0.1374 0.9444
H -7.7893 -2.0241 1.8706
*
