! B3LYP 6-31G* SP

* xyz 0 1
C 1.6552 2.2296 4.6173
O 2.2440 1.8962 3.3642
C 1.5251 1.6955 2.1737
C 0.1186 1.7905 2.1227
C -0.5714 1.5760 0.9195
C -2.0818 1.6854 0.8769
N -2.7067 0.5074 0.2458
C -3.8305 0.7058 -0.6497
O -4.8934 0.0503 -0.4767
C -3.7862 1.6667 -1.7746
C -4.8893 2.0831 -2.5169
C -4.5640 2.9592 -3.5619
C -3.2081 3.2311 -3.6591
S -2.4173 2.3759 -2.4480
C -2.3375 -0.8391 0.7554
C -3.5353 -1.6651 1.1655
N -4.3082 -1.2772 2.3018
O -3.8855 -2.6734 0.4928
C -1.4333 -1.5606 -0.2298
C -0.1833 -2.0529 0.1984
C 0.6692 -2.6957 -0.7023
C 0.2898 -2.8547 -2.0385
C -0.9503 -2.3814 -2.4725
C -1.8138 -1.7451 -1.5743
C 0.1599 1.2797 -0.2391
C 1.5502 1.1849 -0.1980
C 2.2443 1.3933 1.0066
O 3.6457 1.3184 1.0869
C 4.5209 0.9941 0.0050
C 4.4330 -0.4689 -0.3419
C 4.2236 -0.8796 -1.6695
C 4.1720 -2.2400 -1.9879
C 4.3393 -3.2024 -0.9858
F 4.2731 -4.5201 -1.2939
C 4.5549 -2.8015 0.3360
C 4.6052 -1.4410 0.6580
H 0.9664 1.4225 4.9429
H 2.4568 2.3395 5.3737
H 1.1066 3.1916 4.5391
H -0.4431 2.0247 3.0168
H -2.3507 2.6209 0.3459
H -2.4929 1.7848 1.9048
H -5.9030 1.7629 -2.3156
H -5.3012 3.3787 -4.2348
H -2.7417 3.8742 -4.3948
H -1.7649 -0.7075 1.7014
H -4.0363 -0.4459 2.8721
H -5.1709 -1.8090 2.5592
H 0.1382 -1.9296 1.2280
H 1.6233 -3.0761 -0.3592
H 0.9560 -3.3510 -2.7331
H -1.2445 -2.5081 -3.5049
H -2.7757 -1.4026 -1.9306
H -0.3430 1.0874 -1.1736
H 2.0733 0.9492 -1.1123
H 4.3016 1.6436 -0.8697
H 5.5617 1.2148 0.3198
H 4.1021 -0.1481 -2.4600
H 3.9969 -2.5498 -3.0099
H 4.6783 -3.5462 1.1133
H 4.7784 -1.1454 1.6859
*
