! B3LYP 6-31G* SP

* xyz -1 1
C 0.8908 -0.4966 -2.6709
C -0.2460 0.3922 -2.2465
C -0.8130 1.2804 -3.1721
C -1.8638 2.1315 -2.7926
C -2.4535 3.0511 -3.6889
Cl -1.9225 3.2081 -5.3617
C -3.4958 3.8770 -3.2492
C -3.9557 3.7987 -1.9329
C -3.3790 2.8934 -1.0413
C -2.3378 2.0604 -1.4626
N -1.7868 1.1790 -0.5893
C -0.7764 0.3406 -0.9411
N -0.2448 -0.5556 0.0436
C 0.4011 -0.0181 1.2421
C 1.7346 0.5752 0.8813
C 2.8778 -0.2356 0.8369
C 4.1076 0.2973 0.4403
C 4.2081 1.6527 0.0702
O 5.4161 2.2395 -0.3402
C 6.6713 1.5675 -0.4282
F 7.0427 1.0880 0.8152
F 6.5917 0.5247 -1.3323
F 7.6296 2.4618 -0.8650
C 3.0611 2.4551 0.1049
C 1.8318 1.9223 0.5024
S -0.5475 -2.2612 -0.0859
O 0.7607 -2.9768 -0.2769
O -1.4356 -2.5425 -1.2655
C -1.3576 -2.8242 1.3714
C -0.8564 -3.9132 2.0955
C -1.5019 -4.3404 3.2602
C -2.6600 -3.6845 3.7157
C -3.3457 -4.1324 4.9479
O -2.8935 -5.0992 5.6175
O -4.5002 -3.4917 5.3847
C -3.1581 -2.5937 2.9819
C -2.5097 -2.1676 1.8187
H 1.4319 -0.0642 -3.5383
H 1.6255 -0.6172 -1.8484
H 0.4965 -1.4913 -2.9603
H -0.4213 1.3063 -4.1805
H -3.9525 4.5843 -3.9301
H -4.7617 4.4420 -1.6035
H -3.7433 2.8399 -0.0229
H -0.2538 0.7475 1.7129
H 0.5462 -0.8197 1.9983
H 2.8150 -1.2835 1.1021
H 4.9688 -0.3556 0.4201
H 3.1225 3.4970 -0.1834
H 0.9543 2.5572 0.5060
H 0.0331 -4.4323 1.7633
H -1.0935 -5.1835 3.8033
H -4.0470 -2.0673 3.3066
H -2.9041 -1.3231 1.2675
*
