! B3LYP 6-31G* SP

* xyz 0 1
C -1.2329 1.8058 -2.1059
C -1.8066 0.6538 -1.3060
C -1.0075 -0.0304 -0.3699
N 0.3707 0.3042 -0.1818
C 1.3837 -0.2154 -1.1022
C 2.0626 -1.4214 -0.5111
C 1.3641 -2.6303 -0.3724
C 1.9816 -3.7376 0.2160
C 3.3071 -3.6633 0.6569
O 3.8809 -4.8080 1.2323
C 5.2210 -4.8952 1.7242
F 5.4350 -6.1652 2.2198
F 5.4135 -3.9780 2.7451
F 6.1230 -4.6577 0.6993
C 4.0119 -2.4502 0.5130
C 3.3881 -1.3382 -0.0582
S 0.8349 1.1994 1.2301
O -0.3643 1.4137 2.1110
O 1.8588 0.4302 2.0162
C 1.4844 2.7590 0.7379
C 2.8421 2.8902 0.4339
C 3.3553 4.1195 0.0086
C 2.5143 5.2396 -0.1122
C 3.0506 6.5446 -0.5612
O 4.2654 6.6606 -0.8808
O 2.2170 7.6574 -0.6375
C 1.1512 5.0989 0.1925
C 0.6403 3.8643 0.6025
N -1.5368 -1.0286 0.3771
C -2.8220 -1.4553 0.2652
C -3.2821 -2.5817 1.1815
C -2.1195 -3.5018 1.5851
C -3.9633 -2.0064 2.4264
C -3.6827 -0.8020 -0.6546
C -5.0428 -1.1593 -0.7945
C -5.8605 -0.5069 -1.7156
C -5.3494 0.5153 -2.5070
C -4.0148 0.8998 -2.3807
C -3.1609 0.2572 -1.4552
H -0.1865 2.0439 -1.8337
H -1.2538 1.5615 -3.1884
H -1.8285 2.7245 -1.9198
H 2.1212 0.5837 -1.3317
H 0.9155 -0.4978 -2.0713
H 0.3414 -2.7156 -0.7150
H 1.4243 -4.6599 0.3304
H 5.0366 -2.3541 0.8416
H 3.9422 -0.4092 -0.1419
H 3.5029 2.0372 0.5113
H 4.4088 4.1911 -0.2285
H 2.5724 8.5573 -0.9385
H 0.4754 5.9384 0.1061
H -0.4145 3.7693 0.8039
H -4.0021 -3.2356 0.6484
H -1.6238 -3.9102 0.6768
H -2.5004 -4.3566 2.1833
H -1.3648 -2.9520 2.1911
H -3.2584 -1.3569 2.9937
H -4.8516 -1.4005 2.1375
H -4.3101 -2.8313 3.0876
H -5.4987 -1.9337 -0.1973
H -6.8998 -0.7941 -1.8128
H -5.9942 1.0177 -3.2181
H -3.6650 1.7024 -3.0151
*
