! B3LYP 6-31G* SP

* xyz 0 1
C -4.9784 -0.4384 -2.5244
N -5.4509 -0.3135 -1.1347
C -4.7189 0.4156 -0.2255
O -3.6332 0.9646 -0.5578
C -5.2088 0.5439 1.0717
C -6.3921 -0.0374 1.4083
C -6.6456 0.2525 2.7363
C -5.5617 1.0153 3.1521
N -4.6871 1.1987 2.1338
C -3.4156 1.9187 2.2269
C -2.2673 0.9532 2.2456
O -2.2992 -0.0262 3.0395
N -1.1224 1.1818 1.4098
C -0.0997 0.2096 1.1508
N 1.0393 0.5146 0.4946
C 1.8440 -0.5722 0.3209
C 3.1592 -0.4606 -0.3601
C 3.8136 -1.5929 -0.8793
C 5.0559 -1.4734 -1.5127
Cl 5.7757 -2.9071 -2.2333
C 5.6715 -0.2132 -1.6256
O 6.9242 -0.0745 -2.2364
C 8.1182 -0.6268 -1.6802
C 8.8480 0.4175 -0.8284
C 9.5462 1.4876 -1.6743
F 10.5418 0.9116 -2.4451
F 8.6396 2.1229 -2.5043
F 10.1199 2.4279 -0.8374
C 5.0052 0.9241 -1.1448
Cl 5.7207 2.5195 -1.3101
C 3.7625 0.7993 -0.5149
C 1.3300 -1.7625 0.8458
S -0.1671 -1.4281 1.5339
N -7.1361 -0.7524 0.5201
C -8.4256 -1.3268 0.9325
C -6.6668 -0.8668 -0.7711
O -7.3567 -1.4793 -1.6346
H -5.2640 -1.4219 -2.9568
H -5.4175 0.3743 -3.1411
H -3.8702 -0.3822 -2.5838
H -7.4983 -0.0440 3.3316
H -5.4260 1.4112 4.1501
H -3.3861 2.5238 3.1586
H -3.3257 2.6257 1.3754
H -1.0275 2.1128 0.9452
H 3.3536 -2.5699 -0.8246
H 8.7751 -0.9772 -2.5044
H 7.8843 -1.5062 -1.0423
H 9.6140 -0.0972 -0.2089
H 8.1254 0.9001 -0.1354
H 3.2750 1.6899 -0.1366
H 1.8048 -2.7337 0.8404
H -8.8142 -2.0578 0.1928
H -8.3123 -1.8707 1.8947
H -9.1729 -0.5144 1.0573
*
