! B3LYP 6-31G* SP

* xyz 0 1
N -1.8557 -2.1350 -2.4047
C -0.9269 -1.1662 -1.9174
O -0.5238 -0.2554 -2.6899
C -0.4315 -1.2498 -0.4898
C 0.4449 -2.4649 -0.2195
C 0.5459 -2.9533 1.0965
C 1.3536 -4.0566 1.3865
C 2.0723 -4.6859 0.3684
C 1.9850 -4.2127 -0.9422
C 1.1794 -3.1093 -1.2385
N 0.2283 0.0086 -0.0572
C -0.1574 0.6038 1.2394
C -1.6481 0.8338 1.3703
C -2.2626 0.6763 2.6248
C -3.6307 0.9187 2.7792
C -4.3966 1.3320 1.6868
C -3.7946 1.5075 0.4385
F -4.5385 1.9103 -0.6211
C -2.4260 1.2679 0.2803
C 1.4600 0.4504 -0.6854
O 2.2221 -0.3915 -1.2316
C 1.8677 1.8749 -0.7081
C 0.9196 2.8978 -0.8812
C 1.3211 4.2366 -0.9158
C 2.6727 4.5661 -0.7902
C 3.6255 3.5565 -0.6354
C 3.2277 2.2164 -0.6001
H -2.1962 -2.9040 -1.7858
H -2.1999 -2.0870 -3.3892
H -1.3514 -1.4057 0.1149
H -0.0077 -2.4836 1.8997
H 1.4219 -4.4239 2.4022
H 2.6976 -5.5396 0.5951
H 2.5454 -4.6995 -1.7301
H 1.1406 -2.7579 -2.2614
H 0.3469 1.5766 1.4083
H 0.1962 -0.0694 2.0491
H -1.6828 0.3646 3.4849
H -4.0968 0.7889 3.7474
H -5.4558 1.5189 1.8093
H -1.9849 1.4004 -0.6967
H -0.1260 2.6638 -1.0051
H 0.5843 5.0188 -1.0465
H 2.9820 5.6029 -0.8183
H 4.6733 3.8119 -0.5438
H 3.9800 1.4471 -0.4766
*
