! B3LYP 6-31G* SP

* xyz 0 1
O 1.0349 -1.5421 0.9818
C 1.2959 -0.3906 0.5364
N 2.4370 -0.1936 -0.3133
C 3.5477 -1.1036 -0.3878
C 4.2595 -1.2257 -1.5918
C 5.3559 -2.0888 -1.6817
C 5.7599 -2.8266 -0.5659
F 6.8249 -3.6611 -0.6536
C 5.0717 -2.6962 0.6434
C 3.9738 -1.8349 0.7369
N 0.4024 0.7052 0.8203
C 0.9706 2.0272 1.1186
C 0.0611 3.1242 0.5776
C -1.3271 2.9520 1.1195
C -2.1522 4.0657 1.3266
C -3.4451 3.8937 1.8215
C -3.9061 2.6060 2.0952
N -3.1026 1.5333 1.8706
C -1.8349 1.6659 1.3885
C -1.0167 0.4177 1.1285
C -1.6551 -0.3557 -0.0076
C -1.5867 0.1250 -1.3261
C -2.1832 -0.5853 -2.3711
C -2.8813 -1.7775 -2.1149
C -3.4813 -2.5697 -3.2491
F -4.5804 -3.2904 -2.8147
F -2.5337 -3.4469 -3.7422
F -3.8916 -1.7287 -4.2692
C -2.9337 -2.2668 -0.7986
C -2.3367 -1.5565 0.2466
H 2.3996 0.5948 -0.9983
H 3.9579 -0.6579 -2.4631
H 5.8931 -2.1830 -2.6168
H 5.3929 -3.2567 1.5120
H 3.4758 -1.7252 1.6910
H 1.9791 2.1505 0.6716
H 1.0763 2.1374 2.2201
H 0.0304 3.0738 -0.5318
H 0.4752 4.1128 0.8735
H -1.7934 5.0644 1.1102
H -4.0845 4.7505 1.9902
H -4.9065 2.4577 2.4791
H -1.0442 -0.1895 2.0608
H -1.0639 1.0468 -1.5461
H -2.0973 -0.2026 -3.3803
H -3.4359 -3.2002 -0.5773
H -2.4013 -1.9488 1.2538
*
