! B3LYP 6-31G* SP

* xyz 0 1
C -1.5119 1.5671 -2.4027
O -1.5547 1.4364 -0.9875
C -0.6626 2.1266 -0.1628
C 0.4538 1.4588 0.3648
N 0.6629 0.0690 0.0999
C 0.1642 -0.9355 1.0400
C -1.2914 -1.2055 0.7833
C -2.2803 -0.5063 1.4903
C -3.6329 -0.7308 1.2187
C -4.0190 -1.6493 0.2364
O -5.3921 -1.8456 0.0148
C -5.9509 -2.7538 -0.9324
F -5.5339 -4.0438 -0.6591
F -7.3289 -2.7025 -0.8441
F -5.5732 -2.3967 -2.2151
C -3.0246 -2.3390 -0.4851
C -1.6723 -2.1156 -0.2125
S 1.6578 -0.4045 -1.2430
O 2.2945 0.8082 -1.8647
O 0.8036 -1.0845 -2.2772
C 2.9288 -1.4881 -0.6855
C 3.8676 -1.0328 0.2475
C 4.8607 -1.8928 0.7262
C 4.9273 -3.2239 0.2773
C 5.9724 -4.1349 0.7943
O 6.0517 -5.3212 0.3741
O 6.8762 -3.6909 1.7557
C 3.9816 -3.6750 -0.6620
C 2.9879 -2.8136 -1.1365
N 1.3485 2.1302 1.1356
C 1.2012 3.4461 1.4328
C 0.0899 4.1531 0.9601
C -0.0850 5.5085 1.2748
C -1.2111 6.1937 0.8144
C -2.1713 5.5312 0.0475
C -2.0061 4.1826 -0.2759
C -0.8665 3.4825 0.1613
H -2.3162 0.9477 -2.8512
H -1.6598 2.6242 -2.7028
H -0.5308 1.2197 -2.7870
H 0.7344 -1.8825 0.9325
H 0.3249 -0.5891 2.0847
H -2.0045 0.2164 2.2478
H -4.3864 -0.1867 1.7742
H -3.2818 -3.0480 -1.2577
H -0.9212 -2.6543 -0.7776
H 3.8239 -0.0135 0.6109
H 5.5723 -1.5160 1.4507
H 7.5906 -4.3085 2.1216
H 4.0049 -4.6955 -1.0253
H 2.2624 -3.1864 -1.8485
H 1.9470 3.9345 2.0460
H 0.6458 6.0353 1.8757
H -1.3435 7.2387 1.0570
H -3.0478 6.0638 -0.2972
H -2.7764 3.6931 -0.8578
*
