! B3LYP 6-31G* SP

* xyz 0 1
C 7.0163 -2.9706 1.9299
O 6.9088 -1.8548 1.0519
C 5.6974 -1.2515 0.6830
C 5.7376 -0.1579 -0.1898
C 4.5580 0.4776 -0.5880
C 3.3158 0.0189 -0.1240
C 2.0476 0.7230 -0.5248
C 1.7194 1.8463 0.4661
C 0.4573 2.6131 0.0642
O -0.6785 1.7708 0.1670
C -1.2578 1.4899 -1.0987
C -2.2477 2.6011 -1.5026
N -3.3147 2.7602 -0.5146
C -4.5406 2.2135 -0.5537
C -5.2040 2.5849 0.5939
N -4.3995 3.3590 1.3520
C -3.2537 3.4436 0.6443
C -1.9571 0.1463 -1.0531
C -2.5431 -0.3318 0.1335
C -3.2187 -1.5552 0.1488
C -3.3276 -2.3209 -1.0268
O -3.9950 -3.5543 -1.0625
C -4.6244 -4.1602 0.0618
C -2.7550 -1.8402 -2.2090
C -2.0807 -0.6164 -2.2263
C 3.2719 -1.0687 0.7616
C 4.4520 -1.7041 1.1597
H 6.6058 -2.7114 2.9287
H 6.4732 -3.8424 1.5077
H 8.0861 -3.2401 2.0446
H 6.6892 0.2033 -0.5589
H 4.6130 1.3277 -1.2567
H 1.2121 -0.0100 -0.5564
H 2.1584 1.1452 -1.5479
H 2.5704 2.5613 0.5067
H 1.5780 1.4191 1.4833
H 0.6016 3.0879 -0.9348
H 0.3225 3.4496 0.7822
H -0.4768 1.4161 -1.8931
H -2.6883 2.3650 -2.4965
H -1.7043 3.5641 -1.6126
H -4.9183 1.5820 -1.3475
H -6.2124 2.3037 0.8661
H -2.3838 3.9945 0.9777
H -2.4890 0.2457 1.0478
H -3.6567 -1.8932 1.0779
H -3.8764 -4.3550 0.8591
H -5.4321 -3.5029 0.4474
H -5.0711 -5.1265 -0.2499
H -2.8371 -2.4170 -3.1216
H -1.6567 -0.2617 -3.1576
H 2.3231 -1.4239 1.1449
H 4.3853 -2.5424 1.8395
*
