! B3LYP 6-31G* SP

* xyz 0 1
O 4.3873 -4.5151 2.9518
C 4.6013 -3.4333 2.3389
O 5.8280 -2.7920 2.4962
C 3.5594 -2.8455 1.4685
C 2.3292 -3.5015 1.2769
C 1.3444 -2.9371 0.4607
C 1.5730 -1.7086 -0.1719
S 0.3277 -0.9597 -1.1655
O -0.8976 -1.8295 -1.2219
O 0.8676 -0.7930 -2.5589
N -0.1001 0.5914 -0.5000
C -0.2834 0.7398 0.9465
C -1.4418 -0.0987 1.4137
C -1.2278 -1.2344 2.2083
C -2.3048 -2.0357 2.5923
C -3.6041 -1.7101 2.1931
F -4.6322 -2.5123 2.5726
C -3.8407 -0.5646 1.4096
C -5.2461 -0.2307 0.9714
F -5.3073 1.0021 0.3432
F -5.6933 -1.1981 0.0910
F -6.0850 -0.1992 2.0714
C -2.7472 0.2311 1.0159
C -0.0065 1.7590 -1.3260
N 0.9420 2.6955 -1.0529
C 1.0838 3.8208 -1.8017
C 0.2468 4.0472 -2.9049
C 0.3619 5.3150 -3.7105
F -0.4257 6.2930 -3.1329
F -0.0586 5.1067 -5.0120
F 1.6732 5.7535 -3.7459
C -0.7655 3.1142 -3.1768
C -0.8944 1.9630 -2.3953
Cl -2.2048 0.8399 -2.7333
C 2.7953 -1.0526 0.0125
C 3.7828 -1.6166 0.8251
H 6.5473 -3.1835 3.0928
H 2.1256 -4.4488 1.7600
H 0.4017 -3.4546 0.3352
H -0.4932 1.8020 1.2050
H 0.6559 0.4602 1.4709
H -0.2283 -1.5050 2.5241
H -2.1305 -2.9156 3.1992
H -2.8991 1.1031 0.3924
H 1.8492 4.5376 -1.5335
H -1.4615 3.2834 -3.9891
H 2.9794 -0.0977 -0.4651
H 4.7170 -1.0849 0.9555
*
