! B3LYP 6-31G* SP

* xyz 0 1
N 6.6641 -1.3659 2.6068
C 5.8125 -1.2616 1.8303
C 4.7530 -1.1319 0.8643
C 3.6336 -1.9671 0.9358
C 2.6041 -1.8406 0.0002
C 2.6831 -0.8797 -1.0204
S 1.3477 -0.7159 -2.1685
O 0.3261 -1.7923 -1.9225
O 1.8754 -0.8672 -3.5676
N 0.6160 0.8599 -1.9836
C 0.2647 1.1153 -0.5851
C -0.9595 2.0049 -0.6224
S -1.8328 2.1293 0.9539
O -1.0537 3.0543 1.8465
O -3.1826 2.7480 0.7179
C -2.0222 0.5927 1.8055
C -3.2749 -0.0359 1.8820
C -3.4121 -1.2522 2.5579
C -2.3035 -1.8410 3.1748
Cl -2.4763 -3.3688 4.0188
C -1.0585 -1.2063 3.1238
C -0.9201 0.0106 2.4502
C -1.7444 1.5138 -1.8502
O -2.4068 2.6120 -2.4331
C -2.7769 0.3906 -1.5631
O -2.1732 -0.7223 -0.9640
C -0.6170 0.9994 -2.7795
C 3.8090 -0.0326 -1.0855
Cl 3.9614 1.2172 -2.3159
C 4.8380 -0.1663 -0.1450
H 3.5548 -2.7141 1.7167
H 1.7431 -2.4910 0.0806
H 1.1064 1.6258 -0.0696
H 0.0367 0.1696 -0.0521
H -0.5946 3.0334 -0.8485
H -4.1446 0.4082 1.4167
H -4.3800 -1.7349 2.6023
H -0.1986 -1.6531 3.6064
H 0.0480 0.4947 2.4238
H -2.7891 2.3097 -3.2987
H -3.2460 0.0748 -2.5223
H -3.5935 0.7769 -0.9187
H -2.8956 -1.3882 -0.8248
H -0.4160 1.7443 -3.5795
H -0.9070 0.0570 -3.2958
H 5.7014 0.4866 -0.1989
*
