! B3LYP 6-31G* SP

* xyz 0 1
C -4.1319 1.7710 -2.5183
N -4.2859 0.9785 -1.2820
C -3.3548 1.0899 -0.2863
O -2.3560 1.8380 -0.4681
C -3.4942 0.3565 0.9174
C -2.5586 0.4315 2.0064
C -1.3830 1.3926 2.0684
C -0.1304 0.8846 1.3948
O 0.9562 1.4677 1.6578
N -0.1537 -0.2031 0.4494
C 1.0088 -0.6810 -0.2401
N 2.2529 -0.1851 -0.0684
C 3.1730 -0.8223 -0.8462
C 4.6079 -0.4344 -0.8205
C 5.6027 -1.2527 -1.3871
C 6.9469 -0.8714 -1.3475
C 7.3302 0.3363 -0.7390
C 8.7775 0.7637 -0.6849
F 8.9228 1.9839 -1.3220
F 9.1709 0.8938 0.6356
F 9.6081 -0.1565 -1.3028
C 6.3396 1.1530 -0.1667
F 6.6743 2.3247 0.4320
C 4.9957 0.7697 -0.2062
C 2.6420 -1.8371 -1.6509
S 0.9864 -1.9257 -1.3645
C -2.7133 -0.4283 3.1044
C -3.7824 -1.3054 3.1797
C -4.7284 -1.3441 2.1661
C -4.6134 -0.5186 1.0218
N -5.5619 -0.5568 0.0208
C -6.7616 -1.4132 0.1545
C -5.3955 0.1961 -1.1144
O -6.2743 0.1672 -2.0233
H -3.0617 1.9063 -2.7841
H -4.5970 1.2624 -3.3897
H -4.6033 2.7672 -2.3831
H -1.1301 1.5930 3.1334
H -1.6563 2.3939 1.6811
H -1.0523 -0.6861 0.2334
H 5.3551 -2.1978 -1.8491
H 7.6832 -1.5286 -1.7917
H 4.2570 1.4237 0.2404
H 3.1770 -2.4558 -2.3569
H -2.0021 -0.4134 3.9218
H -3.8860 -1.9549 4.0397
H -5.5416 -2.0442 2.2912
H -7.4886 -1.2864 -0.6736
H -7.3082 -1.1594 1.0878
H -6.4619 -2.4831 0.1677
*
