! B3LYP 6-31G* SP

* xyz -1 1
C 2.2588 -1.3068 -1.9692
C 2.5249 0.1874 -2.1002
N 2.5821 0.8224 -0.7773
C 1.5808 1.4462 -0.0921
C 0.1486 1.5819 -0.5351
N -0.7240 0.7901 0.3338
C -0.8136 -0.6256 0.1426
N -1.4751 -1.0908 -0.9495
C -1.5858 -2.4122 -1.2253
C -0.9904 -3.3564 -0.3856
C -1.0797 -4.7246 -0.6848
C -0.4692 -5.6653 0.1450
C 0.2351 -5.2493 1.2746
C 0.3300 -3.8902 1.5862
C -0.2870 -2.9197 0.7655
C -0.2157 -1.5308 1.0511
C 0.5172 -1.0240 2.2730
S -1.9419 1.5791 1.2844
O -2.5172 0.6150 2.2850
O -1.3298 2.7286 2.0357
C -3.2199 2.1503 0.2194
C -4.1714 1.2488 -0.2725
C -5.1772 1.6884 -1.1380
C -5.2414 3.0388 -1.5279
C -6.3038 3.5108 -2.4430
O -7.1715 2.7107 -2.8851
O -6.3604 4.8459 -2.8272
C -4.2774 3.9369 -1.0366
C -3.2724 3.4942 -0.1713
C 2.0418 1.9119 1.1366
C 3.3608 1.5303 1.1998
C 4.2972 1.7048 2.2159
C 5.5882 1.1825 2.0176
Cl 6.8068 1.3722 3.2642
C 5.9052 0.5020 0.8212
C 4.9364 0.3388 -0.1852
C 3.6612 0.8718 0.0352
H 3.0389 -1.7848 -1.3398
H 1.2679 -1.4787 -1.5087
H 2.2695 -1.7776 -2.9745
H 3.4873 0.3405 -2.6330
H 1.7479 0.6557 -2.7358
H 0.0015 1.2708 -1.5870
H -0.1304 2.6559 -0.4821
H -2.1268 -2.7215 -2.1112
H -1.6173 -5.0651 -1.5620
H -0.5384 -6.7195 -0.0906
H 0.7121 -5.9830 1.9116
H 0.8948 -3.6145 2.4661
H 0.3645 0.0584 2.4470
H 1.6063 -1.2073 2.1565
H 0.1451 -1.5422 3.1814
H -4.1323 0.2041 0.0108
H -5.9020 0.9712 -1.5029
H -4.2970 4.9813 -1.3220
H -2.5346 4.2000 0.1884
H 1.4750 2.4330 1.8968
H 4.0365 2.2226 3.1301
H 6.8990 0.0986 0.6750
H 5.1817 -0.1917 -1.0950
*
