! B3LYP 6-31G* SP

* xyz 0 1
C -7.9869 2.6013 -1.1648
C -6.5311 2.1443 -1.1589
C -6.3153 0.9967 -0.1606
C -4.8468 0.5460 -0.0950
C -4.4484 -0.3282 -1.2918
C -3.0038 -0.7402 -1.1874
C -2.0038 0.0368 -1.7847
C -0.6568 -0.3312 -1.6790
O 0.3199 0.4591 -2.2864
C -0.2911 -1.4902 -0.9609
C 1.1669 -1.8825 -0.8569
C 1.7562 -1.4206 0.4532
C 3.0566 -1.5874 0.7788
C 4.0248 -2.2556 -0.1688
C 3.5543 -1.0993 2.1251
C 3.5910 0.4344 2.2101
C 4.4569 1.0446 1.1322
C 5.7943 1.2179 1.2257
C 6.5679 0.8488 2.4707
C 6.5202 1.8194 0.0515
C -1.3006 -2.2410 -0.3090
O -1.0075 -3.3490 0.4895
C -2.6421 -1.8689 -0.4430
H -8.1114 3.4357 -1.8862
H -8.6516 1.7655 -1.4696
H -8.2852 2.9580 -0.1555
H -6.2608 1.8202 -2.1861
H -5.8864 3.0071 -0.8806
H -6.9669 0.1336 -0.4225
H -6.6131 1.3473 0.8522
H -4.1785 1.4336 -0.0287
H -4.7080 -0.0477 0.8367
H -4.6086 0.2207 -2.2432
H -5.0922 -1.2335 -1.3212
H -2.2714 0.9316 -2.3342
H 0.0816 1.3012 -2.7976
H 1.2713 -2.9837 -0.9567
H 1.7476 -1.4461 -1.6977
H 1.0960 -0.9396 1.1720
H 4.1018 -1.6678 -1.1068
H 3.6800 -3.2846 -0.4026
H 5.0419 -2.3238 0.2707
H 4.5636 -1.5056 2.3397
H 2.8857 -1.4907 2.9236
H 2.5586 0.8301 2.0953
H 3.9351 0.7468 3.2190
H 3.9509 1.3525 0.2202
H 6.4714 -0.2353 2.6764
H 7.6494 1.0733 2.3574
H 6.1927 1.4290 3.3389
H 6.3988 1.1642 -0.8362
H 6.0990 2.8216 -0.1773
H 7.6061 1.9349 0.2527
H -0.0662 -3.6483 0.7046
H -3.4063 -2.4552 0.0543
*
