! B3LYP 6-31G* SP

* xyz 0 1
C -2.8010 1.9132 -1.4032
C -2.1131 2.2853 -0.1082
C -1.3345 1.3324 0.5898
N -1.0923 0.0277 0.0494
C -0.1416 -0.1386 -1.0530
C 1.2679 -0.1637 -0.5274
C 1.9333 1.0297 -0.2473
C 3.2233 1.0133 0.2810
C 3.8947 -0.2017 0.5674
C 5.3366 -0.1444 1.1355
C 5.5208 -1.0990 2.3356
O 5.5933 1.1454 1.6583
C 6.3793 -0.4682 0.0240
F 6.1813 0.3546 -1.0726
F 7.6597 -0.2563 0.5061
F 6.2880 -1.7797 -0.4009
C 3.2046 -1.4155 0.2611
Cl 3.8636 -3.0303 0.5024
C 1.9083 -1.3779 -0.2694
S -1.6384 -1.3604 0.9377
O -0.5053 -1.9178 1.7525
O -2.7491 -0.9639 1.8692
C -2.2528 -2.5698 -0.1823
C -1.5154 -3.7274 -0.4606
C -2.0010 -4.6684 -1.3726
C -3.2322 -4.4644 -2.0191
C -3.7457 -5.4640 -2.9805
O -4.8656 -5.2987 -3.5348
O -2.9969 -6.5998 -3.2806
C -3.9646 -3.2968 -1.7383
C -3.4749 -2.3560 -0.8291
N -0.7841 1.6495 1.7908
C -0.9235 2.8729 2.3550
C -1.6387 3.8733 1.6934
C -1.7615 5.1496 2.2635
C -2.4679 6.1504 1.5966
C -3.0524 5.8875 0.3581
C -2.9409 4.6201 -0.2199
C -2.2383 3.5882 0.4409
H -3.8680 2.2132 -1.3682
H -2.2985 2.4215 -2.2518
H -2.7945 0.8210 -1.5904
H -0.2515 0.6922 -1.7832
H -0.3661 -1.0728 -1.6110
H 1.4508 1.9812 -0.4369
H 3.6819 1.9740 0.4643
H 5.7741 -2.1325 2.0329
H 6.3689 -0.7578 2.9683
H 4.6099 -1.1107 2.9716
H 5.8757 1.7538 0.9263
H 1.3937 -2.3070 -0.4829
H -0.5638 -3.9028 0.0233
H -1.4123 -5.5551 -1.5705
H -3.3405 -7.2900 -3.9369
H -4.9141 -3.1084 -2.2233
H -4.0475 -1.4585 -0.6313
H -0.4605 3.0655 3.3145
H -1.3092 5.3729 3.2226
H -2.5588 7.1339 2.0391
H -3.5933 6.6697 -0.1584
H -3.3996 4.4659 -1.1865
*
