! B3LYP 6-31G* SP

* xyz 0 1
C -2.7998 -0.6319 -0.3167
C -1.5671 -0.9576 -1.1092
C -0.2607 -0.7093 -0.6747
N 0.0952 -0.0884 0.5642
C 0.5633 1.2972 0.5788
C -0.5626 2.2178 0.1938
C -1.4434 2.6996 1.1718
C -2.5494 3.4672 0.8042
C -2.7932 3.7531 -0.5418
F -3.8936 4.4755 -0.8731
C -1.9179 3.2817 -1.5385
C -2.2196 3.5463 -2.9941
F -3.3187 2.7988 -3.3748
F -1.1499 3.2090 -3.8057
F -2.4980 4.8885 -3.1815
C -0.8091 2.5026 -1.1590
S 0.0330 -1.0064 2.0358
O -0.8643 -0.2989 3.0124
O -0.5223 -2.3768 1.7650
C 1.6557 -1.1661 2.6970
C 1.8701 -1.0967 4.0790
C 3.1619 -1.2238 4.5983
C 4.2585 -1.4254 3.7405
C 5.6279 -1.5600 4.2841
O 5.8313 -1.4932 5.5267
O 6.7066 -1.7621 3.4270
C 4.0346 -1.4991 2.3546
C 2.7419 -1.3720 1.8383
S 0.8463 -1.0933 -1.8909
C -0.3252 -1.6100 -2.9774
C -0.1364 -2.0896 -4.2712
C -1.2682 -2.4435 -5.0203
C -2.5563 -2.3079 -4.4692
C -2.7247 -1.8188 -3.1631
C -1.5904 -1.4731 -2.4168
H -3.3901 0.1408 -0.8523
H -3.4166 -1.5462 -0.1931
H -2.5466 -0.2401 0.6890
H 1.4180 1.4109 -0.1229
H 0.9407 1.5670 1.5893
H -1.2835 2.4662 2.2171
H -3.2293 3.8285 1.5650
H -0.1465 2.0933 -1.9115
H 1.0394 -0.9455 4.7564
H 3.3013 -1.1650 5.6705
H 7.6483 -1.8555 3.7887
H 4.8570 -1.6557 1.6681
H 2.5891 -1.4342 0.7686
H 0.8569 -2.1839 -4.6905
H -1.1504 -2.8191 -6.0284
H -3.4234 -2.5804 -5.0567
H -3.7199 -1.7145 -2.7506
*
