! B3LYP 6-31G* SP

* xyz 0 1
O 0.1743 -0.9935 1.5976
C 0.6015 -0.5865 0.4838
N -0.3178 -0.3024 -0.5952
C -1.7312 -0.7110 -0.6989
C -2.2808 -1.4802 0.4979
C -3.1523 -0.8984 1.4432
C -3.6277 -1.6464 2.5245
C -3.2486 -2.9813 2.6760
C -2.3962 -3.5742 1.7434
C -1.9180 -2.8322 0.6599
C -2.6320 0.4303 -1.1575
N -3.6134 0.0901 -2.0420
C -4.4993 0.9829 -2.5468
C -4.4280 2.3167 -2.1709
C -3.4542 2.7171 -1.2611
C -2.5520 1.7867 -0.7052
C -1.5110 2.2997 0.2762
F -0.3084 2.4811 -0.3789
F -1.8907 3.5155 0.8198
F -1.3383 1.4259 1.3292
C 2.0637 -0.3969 0.3149
C 2.9564 -1.1884 1.0619
C 4.3385 -1.0290 0.9272
C 4.8510 -0.0673 0.0485
C 6.2314 0.1166 -0.1055
C 6.7073 1.0908 -0.9856
C 5.7982 1.8727 -1.7027
N 4.4608 1.6841 -1.5447
C 3.9662 0.7415 -0.6967
C 2.5833 0.5772 -0.5595
H 0.0824 0.0692 -1.4847
H -1.7532 -1.4435 -1.5383
H -3.4814 0.1262 1.3486
H -4.2951 -1.1905 3.2445
H -3.6185 -3.5573 3.5143
H -2.1044 -4.6099 1.8601
H -1.2530 -3.3085 -0.0502
H -5.2542 0.6549 -3.2487
H -5.1229 3.0378 -2.5819
H -3.4133 3.7648 -0.9926
H 2.5834 -1.9426 1.7440
H 5.0041 -1.6557 1.5087
H 6.9369 -0.4879 0.4519
H 7.7720 1.2399 -1.1104
H 6.1568 2.6309 -2.3860
H 1.9277 1.2311 -1.1177
*
