! B3LYP 6-31G* SP

* xyz 0 1
C 7.0614 0.4389 0.3655
O 5.6747 0.3776 0.6317
C 4.8351 1.2374 -0.1506
C 3.4034 0.9171 0.3441
C 2.4288 1.8979 0.6519
C 1.1401 1.5321 1.0491
C 0.7811 0.1835 1.1467
C -0.6240 -0.2120 1.5120
N -1.3139 -0.8125 0.3652
C -2.2337 -1.8881 0.5974
N -3.2462 -1.6967 1.4839
C -4.1833 -2.6419 1.7352
C -4.1463 -3.8638 1.0598
C -5.1318 -4.8340 1.2984
C -5.0989 -6.0502 0.6158
C -4.0879 -6.3053 -0.3102
C -3.0986 -5.3493 -0.5561
C -3.1057 -4.1143 0.1302
C -2.1116 -3.1233 -0.0833
C -0.9420 -3.3796 -1.0075
S -1.4183 0.0563 -1.1423
O -0.1126 -0.0721 -1.8764
O -2.5116 -0.5215 -1.9974
C -1.7876 1.7501 -0.8372
C -0.9817 2.7653 -1.3683
C -1.2750 4.1065 -1.1059
C -2.3816 4.4518 -0.3108
C -2.6902 5.8725 -0.0364
O -3.6815 6.1846 0.6777
O -1.8889 6.8799 -0.5673
C -3.1890 3.4271 0.2157
C -2.8935 2.0869 -0.0487
C 1.7324 -0.7995 0.8566
C 3.0214 -0.4391 0.4604
C 4.8786 0.8808 -1.6774
F 3.7245 1.3172 -2.3094
F 5.9480 1.4779 -2.3229
F 4.9770 -0.4890 -1.8515
C 5.2092 2.7478 0.0643
F 5.0606 3.0897 1.3976
F 6.5142 3.0203 -0.3036
F 4.4084 3.5681 -0.7128
H 7.5214 -0.5022 0.7302
H 7.3121 0.5085 -0.7084
H 7.5299 1.2612 0.9440
H 2.6336 2.9538 0.6046
H 0.4176 2.3078 1.2713
H -1.2059 0.6621 1.8750
H -0.5730 -0.9400 2.3518
H -4.9664 -2.4290 2.4526
H -5.9279 -4.6504 2.0102
H -5.8616 -6.7952 0.8020
H -4.0714 -7.2478 -0.8424
H -2.3427 -5.5859 -1.2919
H -0.4669 -4.3523 -0.7616
H -0.1454 -2.6173 -0.9069
H -1.2930 -3.3902 -2.0603
H -0.1216 2.5230 -1.9788
H -0.6342 4.8717 -1.5251
H -2.0929 7.8559 -0.3877
H -4.0486 3.6604 0.8317
H -3.5229 1.3102 0.3668
H 1.4714 -1.8485 0.9251
H 3.7251 -1.2306 0.2382
*
