! B3LYP 6-31G* SP

* xyz 0 1
C -0.8997 -1.5560 -1.7603
C -1.8455 -1.3229 -0.5837
N -1.1931 -0.5734 0.5102
C -0.5809 -1.3068 1.5970
O -0.6418 -0.8606 2.7777
C 0.1037 -2.5899 1.3693
C -0.4937 -3.7773 1.8165
C 0.1353 -5.0049 1.6023
C 1.3701 -5.0532 0.9524
C 1.9817 -3.8740 0.5180
C 1.3562 -2.6286 0.7282
O 1.9402 -1.4217 0.3096
C 3.1388 -1.3272 -0.4512
C 3.4114 0.1141 -0.7691
C 2.5923 0.7966 -1.6837
C 2.8217 2.1469 -1.9642
C 3.8714 2.8252 -1.3352
Cl 4.1559 4.5223 -1.6785
C 4.6870 2.1528 -0.4193
C 4.4569 0.8034 -0.1319
C -1.4825 0.8646 0.7071
C -1.2058 1.6812 -0.5691
C -1.4000 3.1901 -0.3294
C -2.5237 3.5196 0.6797
C -3.5795 2.4033 0.7901
N -4.2755 2.2269 -0.4872
C -2.9265 1.0734 1.2447
H -1.4464 -2.0933 -2.5642
H -0.5347 -0.5933 -2.1679
H -0.0360 -2.1775 -1.4647
H -2.7335 -0.7719 -0.9615
H -2.2225 -2.2994 -0.2087
H -1.4535 -3.7521 2.3190
H -0.3356 -5.9195 1.9400
H 1.8547 -6.0066 0.7853
H 2.9405 -3.9409 0.0233
H 3.0248 -1.8949 -1.3989
H 3.9815 -1.7666 0.1232
H 1.7749 0.2837 -2.1754
H 2.1810 2.6657 -2.6663
H 5.4976 2.6750 0.0764
H 5.0930 0.2994 0.5867
H -0.7791 1.2730 1.4710
H -0.1618 1.5032 -0.9057
H -1.8842 1.3594 -1.3878
H -0.4474 3.6281 0.0464
H -1.6231 3.6772 -1.3042
H -3.0125 4.4773 0.3929
H -2.0735 3.6766 1.6866
H -4.3252 2.7070 1.5602
H -5.0580 1.5465 -0.3459
H -4.7277 3.1343 -0.7470
H -3.5856 0.2230 0.9648
H -2.8820 1.0629 2.3568
*
