! B3LYP 6-31G* SP

* xyz 0 1
N 1.2202 -2.7810 0.4111
C 0.4096 -1.9247 -0.4003
O 0.7828 -1.6566 -1.5738
C -0.8596 -1.2944 0.1331
C -1.5975 -2.2176 1.0941
C -1.8465 -1.8800 2.4421
C -2.5332 -2.7655 3.2790
C -2.9767 -3.9947 2.7894
C -2.7414 -4.3404 1.4578
C -2.0629 -3.4576 0.6137
N -0.6004 0.0471 0.6997
C 0.5359 0.3288 1.5929
C 1.5294 1.2219 0.8982
C 1.3327 2.6113 0.8799
C 2.2155 3.4383 0.1834
C 3.2962 2.8860 -0.5057
C 3.5092 1.5027 -0.5031
O 4.6110 1.0014 -1.2158
C 4.9710 -0.3751 -1.3181
F 3.9509 -1.0914 -1.9190
F 6.1074 -0.4842 -2.0957
F 5.2378 -0.8931 -0.0637
C 2.6191 0.6715 0.2058
C -1.5890 1.0752 0.5180
O -2.2527 1.4702 1.5146
C -1.8126 1.6943 -0.8097
C -0.8842 1.5148 -1.8526
C -1.0907 2.1178 -3.0964
C -2.2210 2.9090 -3.3123
C -3.1455 3.1011 -2.2833
C -2.9442 2.4997 -1.0377
H 2.1093 -3.1761 0.0292
H 0.9480 -3.0101 1.3915
H -1.5363 -1.1720 -0.7438
H -1.5278 -0.9368 2.8566
H -2.7243 -2.4963 4.3098
H -3.5066 -4.6783 3.4406
H -3.0928 -5.2893 1.0764
H -1.8949 -3.7414 -0.4179
H 1.0279 -0.6098 1.9221
H 0.1749 0.8212 2.5223
H 0.4910 3.0530 1.3972
H 2.0581 4.5088 0.1727
H 3.9733 3.5358 -1.0451
H 2.7647 -0.3984 0.2217
H 0.0096 0.9248 -1.7048
H -0.3706 1.9756 -3.8919
H -2.3789 3.3768 -4.2756
H -4.0193 3.7167 -2.4512
H -3.6758 2.6614 -0.2560
*
