! B3LYP 6-31G* SP

* xyz 0 1
C 7.8567 -3.7022 -0.3271
C 6.7675 -2.7375 -0.0067
N 5.7156 -2.5059 -0.8298
C 4.9031 -1.5462 -0.3192
C 3.7273 -1.1061 -0.9267
C 2.9526 -0.1156 -0.2813
C 1.6663 0.3621 -0.9010
N 0.5338 0.0955 -0.0102
C -0.2114 1.1735 0.5681
N -0.0093 1.4693 1.8785
C -0.7051 2.4368 2.5229
C -1.6873 3.1641 1.8464
C -2.4301 4.1466 2.5189
C -3.4250 4.8572 1.8460
C -3.6797 4.6018 0.5003
C -2.9387 3.6348 -0.1857
C -1.9384 2.8895 0.4785
C -1.1962 1.8705 -0.1733
C -1.4747 1.5105 -1.6175
S 0.0348 -1.5296 0.3449
O 0.9404 -2.5143 -0.3429
O 0.1105 -1.7690 1.8278
C -1.6176 -1.7573 -0.2177
C -1.8726 -2.4197 -1.4257
C -3.1857 -2.5660 -1.8846
C -4.2620 -2.0396 -1.1475
C -5.6522 -2.1926 -1.6300
O -5.8932 -2.8355 -2.6877
O -6.7099 -1.6321 -0.9153
C -3.9981 -1.3653 0.0587
C -2.6847 -1.2282 0.5195
C 3.3898 0.4257 0.9518
C 4.5789 -0.0243 1.5472
C 5.3106 -1.0098 0.8909
S 6.7434 -1.7434 1.3650
H 8.6747 -3.1757 -0.8607
H 7.4650 -4.5161 -0.9728
H 8.2551 -4.1464 0.6087
H 3.4143 -1.5315 -1.8721
H 1.4831 -0.1401 -1.8763
H 1.7513 1.4520 -1.1064
H -0.4993 2.6248 3.5693
H -2.2463 4.3581 3.5650
H -4.0046 5.6051 2.3715
H -4.4518 5.1576 -0.0176
H -3.1654 3.4762 -1.2308
H -1.2083 2.3653 -2.2734
H -0.9085 0.6241 -1.9627
H -2.5513 1.2646 -1.7441
H -1.0579 -2.8187 -2.0169
H -3.3566 -3.0855 -2.8202
H -7.6657 -1.7341 -1.2355
H -4.8042 -0.9429 0.6461
H -2.4996 -0.6988 1.4462
H 2.8043 1.1861 1.4524
H 4.9122 0.3778 2.4944
*
