! B3LYP 6-31G* SP

* xyz 0 1
C 5.1842 1.2312 0.3161
C 4.4158 1.1741 -0.9991
O 3.0424 0.8670 -0.7668
C 2.5809 -0.4152 -0.4455
O 3.3832 -1.3856 -0.4075
C 1.1441 -0.6083 -0.1756
S 0.0017 0.6171 -0.3364
C -1.3014 -0.3553 0.1016
C -2.7158 0.0753 0.1864
C -3.7121 -0.8425 0.5681
C -5.0497 -0.4432 0.6503
C -5.4076 0.8735 0.3533
C -4.4284 1.7938 -0.0267
C -3.0891 1.4001 -0.1106
N -0.8859 -1.6126 0.3756
C 0.4589 -1.7659 0.2284
N 1.0761 -3.0280 0.4946
H 5.1790 0.2380 0.8116
H 6.2366 1.5265 0.1210
H 4.7201 1.9787 0.9937
H 4.4771 2.1677 -1.4909
H 4.8713 0.4234 -1.6809
H -3.4589 -1.8687 0.8032
H -5.8094 -1.1557 0.9447
H -6.4434 1.1807 0.4175
H -4.7070 2.8141 -0.2567
H -2.3512 2.1337 -0.4075
H 0.4820 -3.8421 0.7676
H 2.1066 -3.1717 0.4675
*
