! B3LYP def2-TZVP SP

* xyz 0 1
O -4.7135 -1.6691 -2.2027
C -4.4515 -1.2823 -1.0319
C -3.1973 -1.7576 -0.3531
C -2.6591 -0.7029 0.6525
C -2.0633 0.5225 -0.1057
C -0.5708 0.3688 -0.4288
N 0.2098 0.0582 0.7785
C 1.6406 0.2446 0.7986
O 2.2303 0.3915 1.9044
N 2.3984 0.2852 -0.4255
C 3.8325 0.1936 -0.4829
C 4.5535 -0.6126 0.4148
C 5.9443 -0.7076 0.3179
C 6.6387 -0.0187 -0.6830
O 8.0353 -0.1546 -0.7341
C 8.8883 0.4556 -1.7001
F 10.1940 0.0871 -1.4407
F 8.5485 0.0309 -2.9721
F 8.7903 1.8330 -1.6217
C 5.9163 0.7731 -1.5956
C 4.5250 0.8697 -1.4978
C -0.4837 -0.4156 1.9850
C -1.6071 -1.3731 1.5825
O -3.7375 -0.2353 1.4761
C -5.0122 0.0569 0.9725
C -5.9080 0.8222 1.7320
Br -5.4108 1.4668 3.4625
C -7.1718 1.1315 1.2172
C -7.5449 0.6753 -0.0500
C -6.6618 -0.1018 -0.8047
C -5.3943 -0.4223 -0.2923
H -3.4457 -2.6974 0.1865
H -2.4214 -1.9950 -1.1134
H -2.6217 0.7284 -1.0438
H -2.1766 1.4291 0.5290
H -0.2201 1.3296 -0.8638
H -0.4276 -0.4366 -1.1801
H 1.8969 0.4406 -1.3272
H 4.0441 -1.1903 1.1747
H 6.4858 -1.3316 1.0175
H 6.4155 1.3152 -2.3862
H 3.9850 1.4821 -2.2080
H -0.8968 0.4510 2.5453
H 0.2166 -0.9633 2.6529
H -1.1324 -2.2418 1.0728
H -2.1006 -1.7677 2.4977
H -7.8639 1.7280 1.7975
H -8.5227 0.9185 -0.4450
H -6.9724 -0.4595 -1.7784
*
