! B3LYP 6-31G* SP

* xyz 0 1
C 7.8814 -0.2054 0.8807
N 6.4563 -0.5462 0.8257
C 5.9774 -1.7694 1.4801
C 5.5671 0.2868 0.0493
O 6.0374 0.9891 -0.8891
C 4.1108 0.3357 0.3087
C 3.6139 0.3659 1.6230
C 2.2370 0.4293 1.8554
C 1.3382 0.4799 0.7804
S -0.3906 0.5973 1.1054
O -0.7728 -0.3859 2.1759
O -0.6811 1.9903 1.5915
N -1.3390 0.2753 -0.3156
C -1.1918 -0.9909 -1.0388
C -2.3811 -1.8827 -0.7970
C -2.4211 -2.7230 0.3278
C -3.5502 -3.5085 0.5805
C -4.6481 -3.4567 -0.2831
C -4.6268 -2.6017 -1.3880
C -3.4992 -1.8152 -1.6462
C -2.4256 1.1541 -0.6280
N -3.5820 1.0609 0.0827
C -4.6519 1.8573 -0.1753
C -4.5851 2.8291 -1.1876
C -5.7808 3.6843 -1.5224
F -6.6054 3.8351 -0.4206
F -6.4981 3.0860 -2.5419
F -5.3742 4.9411 -1.9352
C -3.4107 2.9192 -1.9518
C -2.3227 2.0879 -1.6721
Cl -0.8506 2.2491 -2.6189
C 1.8320 0.4863 -0.5325
C 3.2084 0.4138 -0.7669
H 8.4368 -0.8962 1.5537
H 8.0049 0.8284 1.2716
H 8.3222 -0.2696 -0.1373
H 5.6115 -1.5312 2.5029
H 6.7974 -2.5200 1.5673
H 5.1574 -2.2352 0.8850
H 4.2893 0.3723 2.4698
H 1.8718 0.4560 2.8754
H -1.0754 -0.7861 -2.1249
H -0.2687 -1.5160 -0.7120
H -1.5823 -2.7657 1.0093
H -3.5754 -4.1556 1.4470
H -5.5218 -4.0650 -0.0850
H -5.4816 -2.5538 -2.0510
H -3.4952 -1.1567 -2.5052
H -5.5555 1.7241 0.4071
H -3.3361 3.6398 -2.7610
H 1.1602 0.5500 -1.3771
H 3.5695 0.4126 -1.7891
*
