! B3LYP 6-31G* SP

* xyz 0 1
N -2.3745 -0.5949 -4.6540
C -2.6179 -0.1738 -3.6041
C -2.9204 0.3491 -2.2951
C -4.0956 1.0819 -2.0964
C -4.4255 1.5588 -0.8180
C -5.6694 2.3834 -0.6009
F -6.1349 2.2355 0.6945
F -5.3776 3.7160 -0.8256
F -6.6733 1.9883 -1.4686
C -3.5293 1.3211 0.2358
N -2.3919 0.6097 0.0216
C -2.0651 0.1204 -1.2038
N -0.8556 -0.6310 -1.3599
C -0.7855 -2.0132 -0.8793
C 0.1408 -2.1220 0.3025
C 1.4386 -2.6369 0.1445
C 2.3201 -2.6698 1.2292
C 1.9122 -2.1927 2.4780
C 0.6215 -1.6851 2.6448
C -0.2626 -1.6499 1.5625
S 0.5291 0.1191 -2.0994
O 1.0991 -0.8174 -3.1281
O 0.1237 1.3948 -2.7828
C 1.7298 0.4906 -0.8666
C 1.3399 1.1529 0.3028
C 2.2652 1.3868 1.3236
C 3.5994 0.9687 1.1841
C 4.5722 1.2020 2.2738
O 5.7753 0.8485 2.1421
O 4.1677 1.8161 3.4566
C 3.9916 0.3240 -0.0037
C 3.0629 0.0884 -1.0216
H -4.7543 1.2747 -2.9355
H -3.7320 1.6985 1.2290
H -1.7960 -2.3723 -0.5840
H -0.4468 -2.6714 -1.7081
H 1.7758 -2.9890 -0.8223
H 3.3227 -3.0520 1.0983
H 2.5987 -2.2101 3.3141
H 0.3097 -1.3099 3.6107
H -1.2551 -1.2419 1.7032
H 0.3146 1.4706 0.4336
H 1.9325 1.8869 2.2243
H 4.8253 1.9810 4.2094
H 5.0125 -0.0093 -0.1417
H 3.3822 -0.4250 -1.9195
*
