! B3LYP 6-31G* SP

* xyz 0 1
N -6.0690 -4.5273 -0.9437
C -6.1161 -3.1238 -0.6647
O -7.1860 -2.6356 -0.2122
C -4.9397 -2.2395 -0.8753
C -4.9107 -0.9613 -0.2836
C -3.8089 -0.1193 -0.4591
C -2.7178 -0.5363 -1.2307
S -1.3100 0.5087 -1.4060
O -0.5771 0.1889 -2.6801
O -1.7756 1.9371 -1.4707
N -0.2448 0.3020 -0.0478
C 0.2191 -1.0357 0.3320
C 1.5668 -1.3161 -0.2766
C 2.7378 -0.9505 0.4061
C 3.9896 -1.1582 -0.1796
C 4.0939 -1.7241 -1.4564
O 5.3776 -1.8995 -1.9984
C 5.6608 -2.4380 -3.2903
F 5.1862 -3.7378 -3.3811
F 7.0286 -2.4484 -3.4789
F 5.0823 -1.6528 -4.2748
C 2.9182 -2.0892 -2.1447
C 1.6651 -1.8833 -1.5572
C 0.3914 1.4580 0.5083
N 1.3906 2.0334 -0.2102
C 2.0856 3.1063 0.2290
C 1.7959 3.6662 1.4730
C 2.5307 4.7716 1.9313
C 2.2493 5.3351 3.1763
C 1.2384 4.7993 3.9724
C 0.4999 3.6981 3.5311
C 0.7576 3.1108 2.2670
C 0.0178 1.9934 1.7735
C -1.1424 1.4177 2.5836
F -2.0643 2.4199 2.8470
F -0.6609 0.9088 3.7814
F -1.8206 0.4012 1.9343
C -2.7421 -1.7993 -1.8361
C -3.8455 -2.6422 -1.6672
H -5.1797 -5.0225 -1.1670
H -6.9316 -5.1059 -0.8388
H -5.7358 -0.6155 0.3279
H -3.8037 0.8545 0.0158
H 0.2759 -1.1139 1.4404
H -0.5111 -1.8053 0.0017
H 2.6812 -0.4948 1.3888
H 4.8847 -0.8680 0.3586
H 2.9584 -2.5256 -3.1336
H 0.7722 -2.1642 -2.1034
H 2.8723 3.5143 -0.3938
H 3.3234 5.1986 1.3264
H 2.8178 6.1878 3.5253
H 1.0261 5.2381 4.9400
H -0.2620 3.3192 4.1979
H -1.9041 -2.1363 -2.4353
H -3.8357 -3.5982 -2.1717
*
