! B3LYP 6-31G* SP

* xyz 0 1
C 6.0082 0.1792 -0.8850
C 5.4390 0.0938 0.5250
N 4.0436 0.5136 0.5294
N 3.6403 1.7613 0.6978
N 2.3224 1.8029 0.5871
C 1.9548 0.5296 0.3360
C 0.5657 0.0993 0.1311
S -0.7791 1.1074 0.1809
C -1.8724 -0.1394 -0.1391
C -3.3421 0.0061 -0.2514
C -4.1445 -1.1178 -0.5228
C -5.5326 -0.9883 -0.6302
C -6.1347 0.2612 -0.4685
C -5.3498 1.3847 -0.1988
F -5.9357 2.5973 -0.0420
C -3.9607 1.2607 -0.0903
N -1.2266 -1.3205 -0.2847
C 0.1194 -1.1919 -0.1361
O 0.9752 -2.2830 -0.2465
N 3.0225 -0.2906 0.2893
H 5.4363 -0.4840 -1.5683
H 7.0710 -0.1421 -0.8790
H 5.9509 1.2242 -1.2571
H 5.5159 -0.9518 0.8938
H 6.0286 0.7471 1.2039
H -3.7007 -2.0970 -0.6521
H -6.1419 -1.8581 -0.8392
H -7.2096 0.3577 -0.5523
H -3.3754 2.1464 0.1191
H 0.6119 -3.2079 -0.4421
*
