! B3LYP 6-31G* SP

* xyz 0 1
C 1.0116 3.2621 1.2249
C 1.0205 1.9144 0.4879
C 0.5670 2.0503 -0.9551
C -0.6924 2.5907 -1.2825
C -1.0948 2.6967 -2.6171
C -0.2537 2.2573 -3.6397
F -0.6486 2.3558 -4.9333
C 0.9909 1.7057 -3.3288
C 1.4008 1.6045 -1.9964
N 0.2324 0.8777 1.1945
C 0.9175 -0.2316 1.8804
C 1.9105 -0.9456 0.9900
C 1.5671 -1.3263 -0.3174
C 2.4912 -1.9933 -1.1233
C 3.7574 -2.3104 -0.6276
C 4.1119 -1.9661 0.6873
C 5.4463 -2.3231 1.2184
O 5.7549 -2.0434 2.4085
O 6.3731 -2.9756 0.4090
C 3.1788 -1.2843 1.4906
C -1.1646 1.0781 1.4889
O -1.5158 2.0528 2.2074
C -2.1845 0.1316 0.9918
C -3.5550 0.3276 1.2784
C -4.4519 -0.6117 0.7805
C -5.8219 -0.7013 0.8959
C -6.1671 -1.8590 0.2004
N -5.0687 -2.4558 -0.3210
C -4.0336 -1.6816 0.0417
C -2.6865 -1.8677 -0.2418
N -1.7973 -0.9513 0.2425
H 0.0160 3.7457 1.2052
H 1.3188 3.1151 2.2801
H 1.7344 3.9547 0.7446
H 2.0912 1.6123 0.4857
H -1.3655 2.9342 -0.5115
H -2.0654 3.1114 -2.8570
H 1.6413 1.3585 -4.1204
H 2.3691 1.1717 -1.7802
H 1.4264 0.1791 2.7795
H 0.1829 -0.9838 2.2415
H 0.5968 -1.0876 -0.7254
H 2.2255 -2.2652 -2.1367
H 4.4544 -2.8308 -1.2720
H 7.2860 -3.2320 0.7670
H 3.4377 -1.0157 2.5085
H -3.9054 1.1685 1.8653
H -6.4861 -0.0223 1.4135
H -7.1718 -2.2420 0.0846
H -5.0367 -3.3356 -0.8834
H -2.3448 -2.7134 -0.8241
*
