! B3LYP 6-31G* SP

* xyz 0 1
C 0.6790 2.9805 0.7706
C -0.7846 2.7439 0.5152
C -1.6998 3.7721 0.7995
C -3.0594 3.6161 0.4946
C -3.9882 4.6308 0.7627
C -5.3331 4.4519 0.4199
C -5.7629 3.2637 -0.1908
C -4.8454 2.2464 -0.4528
C -3.4920 2.4184 -0.1097
N -2.5990 1.4256 -0.3458
C -1.2698 1.5336 -0.0448
N -0.4115 0.3965 -0.2846
C 0.2357 -0.2664 0.8583
C 1.7502 -0.2362 0.8099
C 2.4740 0.2653 -0.2886
C 3.8700 0.2945 -0.2642
C 4.5788 -0.1756 0.8555
C 6.0918 -0.1555 0.8685
F 6.5377 0.2202 2.1238
F 6.5704 0.7866 -0.0340
C 6.6236 -1.5705 0.5643
C 8.0222 -1.6497 -0.0345
C 6.8025 -1.9256 -0.9061
C 3.8567 -0.7244 1.9321
F 4.5032 -1.2487 3.0013
C 2.4595 -0.7478 1.9085
S -0.6998 -0.5530 -1.7214
O -0.9607 0.3612 -2.8854
O 0.5072 -1.3854 -2.0432
C -2.0869 -1.6128 -1.4687
C -1.9178 -2.8405 -0.8179
C -3.0221 -3.6460 -0.5312
C -4.3179 -3.2346 -0.8974
C -5.4891 -4.0679 -0.5531
O -6.6499 -3.6871 -0.8444
O -5.3211 -5.2775 0.1102
C -4.4814 -2.0108 -1.5752
C -3.3723 -1.2121 -1.8639
H 0.8887 4.0495 0.9938
H 1.0217 2.3810 1.6369
H 1.2611 2.7228 -0.1310
H -1.3559 4.6997 1.2439
H -3.6713 5.5584 1.2315
H -6.0454 5.2364 0.6222
H -6.8097 3.1344 -0.4590
H -5.1846 1.3270 -0.9223
H -0.0918 -1.3251 0.9033
H -0.1026 0.2015 1.8111
H 1.9694 0.6484 -1.1678
H 4.3943 0.6883 -1.1266
H 6.3489 -2.4215 1.2274
H 8.5268 -0.6853 -0.2737
H 8.5916 -2.5630 0.2394
H 6.5780 -1.1241 -1.6465
H 6.6607 -3.0021 -1.1418
H 1.9244 -1.1675 2.7516
H -0.9313 -3.1679 -0.5198
H -2.8622 -4.5820 -0.0063
H -6.1229 -5.8507 0.3469
H -5.4651 -1.6642 -1.8711
H -3.5203 -0.2727 -2.3791
*
