! B3LYP 6-31G* SP

* xyz 0 1
N 1.1438 -2.3944 2.3328
C 0.6860 -1.0598 2.0960
O 1.2036 -0.1070 2.7394
C -0.4011 -0.7908 1.0754
C -1.7422 -0.3838 1.6854
C -1.9857 -0.4047 3.0791
C -3.2354 -0.0388 3.5873
C -4.2636 0.3354 2.7189
C -4.0483 0.3339 1.3389
C -2.8027 -0.0338 0.8249
N 0.0701 0.1987 0.0713
C -0.0348 1.6205 0.3366
O 0.0415 2.0423 1.5229
C -0.2515 2.6030 -0.7520
C -1.0300 2.2754 -1.8758
C -1.2087 3.2034 -2.9062
C -0.6224 4.4676 -2.8201
C 0.1262 4.8147 -1.6934
C 0.3070 3.8894 -0.6598
C 0.8097 -0.2529 -1.1325
C -0.0511 -1.1653 -2.0420
C 0.5746 -2.5731 -2.0050
C 1.8369 -2.3857 -1.2517
C 2.8118 -3.3549 -1.0045
C 3.9488 -2.9959 -0.2645
C 4.0966 -1.6798 0.2121
Cl 5.5164 -1.2373 1.1411
C 3.1039 -0.7216 -0.0489
C 1.9727 -1.1059 -0.7748
H 1.9061 -2.5703 3.0242
H 0.7373 -3.2073 1.8184
H -0.6013 -1.7538 0.5596
H -1.2206 -0.7015 3.7843
H -3.4082 -0.0494 4.6576
H -5.2292 0.6188 3.1152
H -4.8481 0.6136 0.6654
H -2.6647 -0.0411 -0.2480
H -1.5132 1.3096 -1.9516
H -1.8017 2.9401 -3.7725
H -0.7590 5.1830 -3.6203
H 0.5738 5.7978 -1.6229
H 0.8985 4.1711 0.2011
H 1.1912 0.6091 -1.7231
H -1.1132 -1.2010 -1.7195
H -0.0268 -0.7777 -3.0843
H -0.0854 -3.2851 -1.4633
H 0.7837 -2.9457 -3.0313
H 2.6944 -4.3648 -1.3761
H 4.7126 -3.7359 -0.0632
H 3.2019 0.2919 0.3192
*
