! B3LYP 6-31G* SP

* xyz -1 1
C -2.0090 1.7170 -1.9313
C -0.6820 2.2871 -1.4962
C 0.2295 1.4724 -0.7887
N -0.1304 0.1539 -0.3483
C -0.6997 0.0426 1.0010
C -1.5901 -1.1640 1.1647
C -1.4614 -1.9838 2.3077
C -2.3172 -3.0732 2.4879
C -3.3148 -3.3648 1.5415
O -4.1480 -4.4723 1.7716
C -4.9832 -5.0852 0.7881
F -5.5177 -6.2524 1.2987
F -4.2417 -5.3892 -0.3362
F -6.0177 -4.2476 0.4579
C -3.4613 -2.5315 0.4236
C -2.6200 -1.4295 0.2495
S 0.8062 -1.1626 -0.9973
O 1.1867 -0.8476 -2.4182
O -0.0004 -2.4303 -1.0039
C 2.2622 -1.3834 -0.0308
C 3.4321 -0.6900 -0.3563
C 4.5852 -0.8488 0.4173
C 4.5869 -1.7115 1.5263
C 5.8183 -1.8955 2.3297
O 5.8630 -2.7666 3.2386
O 6.9497 -1.1222 2.0836
C 3.4057 -2.3956 1.8542
C 2.2501 -2.2254 1.0838
N 1.4620 1.9440 -0.4852
C 1.8703 3.1916 -0.8125
C 0.9957 4.0675 -1.4539
C 1.3979 5.3775 -1.7536
C 0.5105 6.2663 -2.3435
C -0.7893 5.8598 -2.6351
C -1.2081 4.5587 -2.3484
C -0.3115 3.6299 -1.7753
H -2.7683 1.8888 -1.1397
H -1.9210 0.6314 -2.1355
H -2.3510 2.1599 -2.8869
H -1.3115 0.9439 1.2332
H 0.1377 0.0118 1.7336
H -0.7038 -1.7750 3.0623
H -2.2006 -3.6974 3.3651
H -4.2360 -2.7091 -0.3074
H -2.7839 -0.7794 -0.6004
H 3.4523 -0.0201 -1.2044
H 5.4757 -0.3007 0.1418
H 3.3746 -3.0619 2.7086
H 1.3463 -2.7506 1.3593
H 2.8745 3.5020 -0.5637
H 2.4026 5.7148 -1.5306
H 0.8229 7.2781 -2.5625
H -1.4784 6.5591 -3.0663
H -2.2407 4.3094 -2.5392
*
