! B3LYP 6-31G* SP

* xyz -1 1
C -2.2456 2.2514 -1.7765
N -1.6388 3.3308 -1.0023
C -1.8500 4.6499 -1.2231
C -1.1744 5.4190 -0.2873
C -0.5241 4.5160 0.5269
C 0.2648 4.7269 1.6558
Cl 0.6098 6.3387 2.2599
C 0.7655 3.5918 2.3106
N 0.4930 2.3410 1.8310
C -0.2699 2.1307 0.7166
N -0.4550 0.7941 0.2368
C 0.3210 0.3349 -0.9200
C 1.6527 -0.2198 -0.4863
C 1.8815 -1.6039 -0.4781
C 3.1068 -2.1167 -0.0425
C 4.1298 -1.2471 0.3831
O 5.3793 -1.7055 0.8306
C 5.7641 -3.0740 0.9396
F 4.9252 -3.7351 1.8187
F 7.0563 -3.1393 1.4232
F 5.7212 -3.6830 -0.3015
C 3.9021 0.1339 0.3606
C 2.6755 0.6458 -0.0704
S -1.1549 -0.3693 1.3234
O -0.0756 -0.9490 2.1946
O -2.1676 0.3100 2.2028
C -1.9696 -1.6502 0.4281
C -1.4081 -2.9307 0.3445
C -2.0493 -3.9360 -0.3848
C -3.2685 -3.6780 -1.0340
C -3.9433 -4.7432 -1.8073
O -5.0356 -4.5160 -2.3923
O -3.3804 -6.0109 -1.9002
C -3.8359 -2.3953 -0.9323
C -3.1914 -1.3916 -0.2040
C -0.8046 3.2551 0.0613
H -2.5644 1.4309 -1.1072
H -3.1484 2.6201 -2.3085
H -1.5264 1.8745 -2.5308
H -2.4806 5.0421 -2.0108
H -1.1775 6.4977 -0.2058
H 1.3762 3.7011 3.1965
H -0.2631 -0.4249 -1.4822
H 0.5035 1.1786 -1.6195
H 1.1147 -2.2878 -0.8159
H 3.2462 -3.1882 -0.0451
H 4.6811 0.8144 0.6804
H 2.5248 1.7182 -0.0822
H -0.4736 -3.1546 0.8414
H -1.5898 -4.9148 -0.4389
H -4.7783 -2.1673 -1.4138
H -3.6504 -0.4151 -0.1280
*
