! B3LYP 6-31G* SP

* xyz 0 1
C -1.1479 4.7471 0.7361
C -0.7022 3.3130 1.0049
C -1.1139 2.3820 -0.1407
C -0.6520 0.9448 0.1274
N -1.0752 0.0462 -0.9633
C -0.5406 0.2436 -2.2891
O -1.3023 0.1475 -3.2897
C 0.8786 0.5996 -2.5021
C 1.1948 1.6539 -3.3743
C 2.5238 2.0238 -3.5833
C 3.5495 1.3369 -2.9352
C 3.2515 0.2724 -2.0819
C 1.9141 -0.1133 -1.8592
O 1.5792 -1.2044 -1.0362
C 2.4924 -1.9655 -0.2439
C 2.9219 -1.1843 0.9687
C 1.9694 -0.8004 1.9263
C 2.3536 -0.0576 3.0462
C 3.6935 0.2957 3.2253
C 4.6513 -0.0975 2.2866
C 4.2698 -0.8379 1.1631
C -2.0972 -0.9997 -0.7494
C -3.4385 -0.3879 -0.3015
C -4.4969 -1.4809 -0.1040
C -4.0156 -2.5427 0.8944
C -2.6784 -3.1599 0.4472
N -2.2379 -4.1553 1.4265
C -1.6108 -2.0622 0.2560
H -0.8364 5.3973 1.5804
H -0.6802 5.1282 -0.1968
H -2.2534 4.7957 0.6390
H -1.1632 2.9652 1.9552
H 0.4034 3.2959 1.1227
H -2.2200 2.3966 -0.2515
H -0.6612 2.7476 -1.0877
H 0.4520 0.9243 0.2288
H -1.0707 0.6146 1.0999
H 0.4090 2.2029 -3.8789
H 2.7587 2.8446 -4.2486
H 4.5799 1.6240 -3.1013
H 4.0721 -0.2506 -1.6164
H 1.9729 -2.8846 0.0999
H 3.3556 -2.2999 -0.8583
H 0.9304 -1.0743 1.8032
H 1.6126 0.2425 3.7759
H 3.9903 0.8699 4.0934
H 5.6900 0.1708 2.4298
H 5.0253 -1.1391 0.4488
H -2.2826 -1.5330 -1.7100
H -3.3176 0.1698 0.6518
H -3.7939 0.3269 -1.0748
H -4.7251 -1.9620 -1.0805
H -5.4338 -1.0191 0.2755
H -4.7840 -3.3421 0.9711
H -3.9024 -2.0784 1.8991
H -2.8390 -3.6771 -0.5259
H -1.9854 -3.6756 2.3215
H -1.3713 -4.6168 1.0658
H -1.3915 -1.5981 1.2396
H -0.6746 -2.5230 -0.1255
*
