! B3LYP 6-31G* SP

* xyz 0 1
O 2.3448 -0.9848 2.3469
C 1.7608 -0.3102 1.4570
C 0.3346 -0.5744 1.1744
S -0.3768 -0.4904 -0.3494
C -1.8839 -1.0247 0.1828
C -3.0863 -1.2084 -0.6620
C -3.0649 -0.8864 -2.0326
C -4.2073 -1.0635 -2.8190
C -5.3806 -1.5627 -2.2496
C -5.4148 -1.8854 -0.8911
F -6.5543 -2.3709 -0.3391
C -4.2751 -1.7096 -0.0996
N -1.8593 -1.2779 1.5115
C -0.6417 -1.0335 2.0659
O -0.4340 -1.2171 3.4316
N 2.5081 0.6710 0.7111
C 3.8854 0.3833 0.2981
C 4.7126 1.6668 0.3102
C 3.9237 2.7957 -0.3566
O 2.6956 3.0040 0.3127
C 1.8624 1.8707 0.1570
H -2.1698 -0.4973 -2.4997
H -4.1825 -0.8135 -3.8719
H -6.2627 -1.6988 -2.8621
H -4.3235 -1.9673 0.9511
H 0.4326 -0.9659 3.8882
H 4.3632 -0.3589 0.9733
H 3.8728 -0.0413 -0.7291
H 5.6713 1.5035 -0.2277
H 4.9398 1.9506 1.3611
H 4.5206 3.7297 -0.2936
H 3.7643 2.5823 -1.4388
H 1.6119 1.7093 -0.9156
H 0.9129 2.0761 0.6955
*
