! B3LYP 6-31G* SP

* xyz -1 1
C -0.8254 -0.5680 2.3045
C -1.1337 0.2514 1.0702
C -0.7180 -0.1888 -0.2046
N 0.0926 -1.3596 -0.3698
C 1.5410 -1.3053 -0.1450
C 2.1386 -0.0906 -0.8067
C 2.4319 -0.1028 -2.1800
C 2.8914 1.0580 -2.8099
C 3.0482 2.2491 -2.0868
O 3.5035 3.3878 -2.7729
C 3.6702 4.6824 -2.2013
F 4.5934 4.6360 -1.1715
F 4.1323 5.5485 -3.1750
F 2.4600 5.1500 -1.7281
C 2.7422 2.2622 -0.7108
C 2.2912 1.1012 -0.0788
S -0.6400 -2.8146 -0.9648
O 0.0169 -3.2220 -2.2540
O -2.1018 -2.5844 -1.2294
C -0.4634 -4.0800 0.2448
C -1.3489 -4.1418 1.3263
C -1.1791 -5.1079 2.3223
C -0.1222 -6.0325 2.2448
C 0.0701 -7.0505 3.3005
O -0.6536 -7.0499 4.3295
O 1.0601 -8.0178 3.1740
C 0.7604 -5.9689 1.1516
C 0.5940 -4.9946 0.1631
N -1.0037 0.5482 -1.3057
C -1.6694 1.7285 -1.2588
C -1.9041 2.4737 -2.5494
C -0.7922 2.3820 -3.5893
C -0.9548 3.6455 -2.7658
C -2.1235 2.2200 -0.0173
C -2.8459 3.4284 0.0761
C -3.2794 3.9007 1.3140
C -2.9917 3.1871 2.4748
C -2.2795 1.9889 2.4057
C -1.8439 1.4772 1.1633
H -1.7649 -0.7973 2.8485
H -0.1373 -0.0009 2.9658
H -0.3524 -1.5399 2.0713
H 2.0277 -2.2226 -0.5396
H 1.7440 -1.2815 0.9462
H 2.2931 -1.0067 -2.7632
H 3.1138 1.0370 -3.8698
H 2.8431 3.1623 -0.1189
H 2.0385 1.1367 0.9760
H -2.1622 -3.4326 1.4076
H -1.8723 -5.1281 3.1547
H 1.5881 -6.6623 1.0674
H 1.2983 -4.9470 -0.6580
H -2.9327 2.6016 -2.9457
H -1.1240 2.4988 -4.6409
H 0.1111 1.7980 -3.3160
H -1.3925 4.4962 -3.3283
H -0.1630 3.7822 -1.9983
H -3.0836 4.0139 -0.8025
H -3.8362 4.8275 1.3743
H -3.3244 3.5630 3.4343
H -2.0759 1.4752 3.3356
*
