! B3LYP 6-31G* SP

* xyz 0 1
C 10.0587 -0.0911 -2.5899
C 8.7678 0.4756 -1.9834
C 8.5469 1.9132 -2.4793
C 8.8339 0.3989 -0.4393
C 7.5072 0.7347 0.2511
O 6.4771 -0.1382 -0.2085
C 5.1471 -0.1008 0.2355
C 4.7031 0.8049 1.2148
C 3.3671 0.8029 1.6260
C 2.4437 -0.1020 1.0658
C 1.0172 -0.1291 1.4906
C 0.4300 0.7988 2.3606
S -1.1876 0.3850 2.5587
C -1.0817 -0.9544 1.5451
N -2.1597 -1.8299 1.1850
C -3.4492 -1.8353 1.8176
O -3.6281 -1.2417 2.9153
C -4.5757 -2.6272 1.2161
C -5.8837 -1.8550 1.2598
C -6.7781 -2.2091 2.2823
C -8.0068 -1.5825 2.4058
C -8.3762 -0.5843 1.5166
C -7.5104 -0.1693 0.4759
C -6.2383 -0.8000 0.3489
C -5.3849 -0.3364 -0.6821
O -4.2186 -0.7990 -0.8033
N -5.8058 0.6310 -1.5534
C -4.9069 1.1023 -2.6263
C -7.0267 1.2269 -1.3966
O -7.3644 2.1571 -2.1847
N -7.8803 0.8343 -0.3962
C -9.1963 1.4988 -0.2625
N 0.1625 -1.0919 1.0399
C 2.8988 -1.0055 0.0872
C 4.2352 -1.0019 -0.3207
H 10.1994 -1.1479 -2.2764
H 10.0062 -0.0683 -3.6999
H 10.9395 0.5007 -2.2598
H 7.9249 -0.1530 -2.3462
H 9.3333 2.5900 -2.0830
H 8.5757 1.9452 -3.5897
H 7.5510 2.2884 -2.1659
H 9.6218 1.0875 -0.0619
H 9.1219 -0.6321 -0.1355
H 7.6382 0.6047 1.3475
H 7.2283 1.7918 0.0571
H 5.3825 1.5135 1.6679
H 3.0729 1.5083 2.3884
H 0.9032 1.6506 2.8274
H -1.9891 -2.5042 0.4058
H -4.3469 -2.9486 0.1789
H -4.6581 -3.5774 1.7875
H -6.5249 -2.9859 2.9943
H -8.6834 -1.8763 3.1986
H -9.3503 -0.1420 1.6663
H -4.1615 0.3317 -2.9137
H -5.4782 1.3323 -3.5500
H -4.3719 2.0152 -2.2908
H -9.3733 2.2861 -1.0238
H -9.2727 1.9920 0.7300
H -10.0109 0.7523 -0.3804
H 2.2218 -1.7169 -0.3690
H 4.5639 -1.7046 -1.0762
*
