! B3LYP 6-31G* SP

* xyz 0 1
C -3.1286 2.4859 -0.4735
C -3.6659 1.3058 0.3436
C -4.3366 0.2545 -0.5463
N -2.6101 0.7074 1.1693
C -1.4164 0.0931 0.6542
O -1.2184 0.0282 -0.5896
N -0.4300 -0.4351 1.5658
C -0.9096 -1.3730 2.6057
C -0.1617 -2.7380 2.5632
C 0.4238 -3.0270 1.1931
C 0.3723 -4.3161 0.6437
C 0.8336 -4.5418 -0.6554
C 1.3247 -3.4803 -1.4193
C 1.3922 -2.1936 -0.8769
C 1.0076 -1.9707 0.4595
C 0.9715 -0.6165 1.1420
C 1.6093 0.5782 0.4245
C 1.0620 1.8766 0.5036
C 1.7112 2.9661 -0.0838
C 2.9469 2.7984 -0.7258
C 3.6694 3.9836 -1.3142
F 4.4489 4.5734 -0.3367
F 4.4824 3.5882 -2.3624
F 2.7662 4.9159 -1.7949
C 3.5573 1.5361 -0.6969
C 2.9063 0.4478 -0.1106
H -2.6068 3.2022 0.1962
H -2.4207 2.1486 -1.2582
H -3.9700 3.0174 -0.9670
H -4.4488 1.7078 1.0249
H -5.2232 0.6959 -1.0494
H -3.6422 -0.1194 -1.3265
H -4.6764 -0.6026 0.0731
H -2.7191 0.7700 2.2066
H -0.7808 -0.9062 3.6053
H -1.9956 -1.5781 2.4748
H 0.6724 -2.7201 3.2973
H -0.8586 -3.5470 2.8735
H -0.0456 -5.1387 1.2104
H 0.7821 -5.5353 -1.0817
H 1.6396 -3.6523 -2.4405
H 1.7191 -1.3866 -1.5153
H 1.5878 -0.7144 2.0648
H 0.1482 2.0722 1.0446
H 1.2563 3.9465 -0.0146
H 4.5474 1.3936 -1.1117
H 3.4266 -0.5005 -0.0641
*
