! B3LYP 6-31G* SP

* xyz 0 1
C 5.1631 -1.2063 -1.1495
C 4.6501 -1.0107 0.2724
O 3.2511 -0.7334 0.2691
C 2.7114 0.5067 -0.0912
O 3.4663 1.4730 -0.3864
C 1.2521 0.6767 -0.1158
S 0.1343 -0.5233 0.2555
C -1.2030 0.4714 -0.0156
C -2.6220 0.0712 0.1253
C -3.6470 1.0004 -0.1316
C -4.9890 0.6304 -0.0009
C -5.3239 -0.6697 0.3873
Cl -7.0083 -1.1315 0.5506
C -4.3144 -1.6012 0.6451
C -2.9710 -1.2355 0.5157
N -0.8115 1.7129 -0.3876
C 0.5427 1.8297 -0.4441
O 1.1586 3.0234 -0.8062
H 4.5985 -2.0233 -1.6467
H 5.0442 -0.2719 -1.7365
H 6.2398 -1.4765 -1.1239
H 5.2070 -0.1901 0.7749
H 4.8234 -1.9457 0.8456
H -3.4127 2.0135 -0.4337
H -5.7673 1.3556 -0.2018
H -4.5691 -2.6095 0.9461
H -2.2106 -1.9772 0.7217
H 0.6072 3.8406 -1.0382
*
