! B3LYP 6-31G* SP

* xyz 0 1
C -0.1813 0.1739 -1.7985
C -1.3389 0.2061 -0.8227
C -1.2678 -0.5141 0.3824
N -0.1355 -1.3318 0.7041
C 0.7599 -0.9242 1.7883
C 1.5121 0.3162 1.3929
C 1.0358 1.5826 1.7626
C 1.7011 2.7361 1.3400
C 2.8397 2.6462 0.5303
O 3.4709 3.8383 0.1377
C 4.6182 3.9229 -0.7048
F 5.6871 3.2614 -0.1263
F 4.9554 5.2529 -0.8704
F 4.3395 3.3739 -1.9444
C 3.3076 1.3744 0.1451
C 2.6467 0.2202 0.5746
S -0.0591 -2.9509 0.0781
O -0.4837 -3.9198 1.1469
O -0.9956 -3.0921 -1.0909
C 1.5797 -3.3212 -0.4518
C 2.4932 -3.9007 0.4379
C 3.7975 -4.1842 0.0244
C 4.2075 -3.8943 -1.2893
C 5.5837 -4.2037 -1.7359
O 6.4036 -4.7473 -0.9470
O 5.9863 -3.8994 -3.0342
C 3.2869 -3.3101 -2.1766
C 1.9827 -3.0274 -1.7603
N -2.2481 -0.3811 1.3037
C -3.3592 0.3738 1.1215
C -4.2580 0.5310 2.3245
C -3.5086 0.7262 3.6434
C -4.2192 1.8972 3.0013
C -3.5803 1.0039 -0.1412
C -4.8000 1.6613 -0.5140
C -6.0901 1.5535 0.2616
C -4.8538 2.3898 -1.7130
C -3.7760 2.4150 -2.5837
C -2.6274 1.6931 -2.2953
C -2.5078 0.9673 -1.0906
H 0.6797 -0.4153 -1.4307
H 0.1912 1.2062 -1.9707
H -0.5114 -0.2739 -2.7602
H 0.1688 -0.7451 2.7133
H 1.4812 -1.7338 2.0275
H 0.1464 1.6773 2.3730
H 1.3271 3.7067 1.6392
H 4.1802 1.2624 -0.4834
H 3.0127 -0.7491 0.2597
H 2.1980 -4.1314 1.4537
H 4.4828 -4.6317 0.7327
H 6.9252 -4.1107 -3.3504
H 3.5704 -3.0754 -3.1945
H 1.2884 -2.5819 -2.4612
H -5.1606 -0.1031 2.4452
H -4.0305 0.3362 4.5423
H -2.4024 0.8236 3.6023
H -5.1639 2.1843 3.5096
H -3.5375 2.6451 2.5409
H -6.2820 0.4995 0.5490
H -6.9641 1.8635 -0.3529
H -6.0700 2.2213 1.1434
H -5.7532 2.9238 -1.9965
H -3.8448 2.9720 -3.5096
H -1.8363 1.7147 -3.0324
*
