! B3LYP 6-31G* SP

* xyz 0 1
O 2.2243 1.3426 -1.2233
C 1.7019 0.3895 -0.5820
N 2.3364 -0.0873 0.6176
C 3.7269 0.1200 0.9218
C 4.1315 0.2227 2.2603
C 5.4799 0.4009 2.5832
C 6.4545 0.4468 1.5720
C 7.9029 0.6861 1.9179
F 8.1415 2.0469 1.9608
F 8.2078 0.1358 3.1508
F 8.7339 0.1120 0.9712
C 6.0483 0.3497 0.2303
C 4.6995 0.1722 -0.0918
N 0.4608 -0.1900 -1.0409
C 0.0714 -1.5288 -0.5690
C -1.1963 -2.0353 -1.2689
C -2.2878 -0.9473 -1.2567
C -3.5727 -1.5035 -1.9223
C -4.7552 -0.5348 -1.7644
C -4.9004 -0.0563 -0.3434
C -6.1160 0.4907 0.0936
C -6.2440 0.9640 1.4025
F -7.4229 1.4864 1.8211
C -5.1575 0.9025 2.2796
C -3.9363 0.3728 1.8494
Cl -2.5770 0.3137 2.9604
C -3.8006 -0.0976 0.5358
O -2.5750 -0.6254 0.1105
C -1.7872 0.3379 -1.9878
C -0.2598 0.4205 -2.1692
H 1.7379 -0.5150 1.3581
H 3.3975 0.1788 3.0552
H 5.7606 0.5023 3.6241
H 6.7748 0.4045 -0.5709
H 4.4225 0.0580 -1.1314
H -0.1264 -1.4929 0.5236
H 0.9002 -2.2470 -0.7519
H -0.9538 -2.3220 -2.3164
H -1.5554 -2.9469 -0.7424
H -3.3976 -1.7037 -3.0023
H -3.8495 -2.4694 -1.4438
H -5.6848 -1.0533 -2.0853
H -4.6139 0.3463 -2.4257
H -6.9624 0.5490 -0.5799
H -5.2632 1.2705 3.2920
H -2.2387 0.4180 -3.0010
H -2.1270 1.2359 -1.4263
H 0.0160 1.4903 -2.2917
H 0.0307 -0.1076 -3.1035
*
