! B3LYP 6-31G* SP

* xyz 0 1
O -6.6046 -2.9558 -0.4767
C -6.2649 -1.8067 -0.8690
O -7.2511 -0.8730 -1.1778
C -4.8346 -1.4510 -0.9973
C -4.4581 -0.1754 -1.4513
C -3.1074 0.1638 -1.5724
C -2.1122 -0.7635 -1.2343
S -0.4055 -0.3446 -1.3692
O 0.2996 -1.4205 -2.1458
O -0.2455 0.9454 -2.1255
N 0.3031 -0.1768 0.2186
C 0.8489 -1.3624 0.8929
C 2.0892 -1.8673 0.2006
C 2.1129 -3.1523 -0.3644
C 3.2634 -3.6216 -1.0036
C 4.4104 -2.8239 -1.0835
O 5.5385 -3.3487 -1.7346
C 6.7882 -2.6788 -1.8869
F 7.3282 -2.3901 -0.6461
F 7.6592 -3.5050 -2.5703
F 6.6193 -1.5122 -2.6112
C 4.3907 -1.5375 -0.5110
C 3.2389 -1.0663 0.1260
C 0.3240 1.1033 0.8845
C -0.7333 2.0156 0.7378
C -0.6947 3.2526 1.4037
C -1.7360 4.2010 1.2792
Cl -3.1589 3.9120 0.2796
C -1.6521 5.4192 1.9641
C -0.5491 5.7051 2.7706
C 0.4840 4.7764 2.9031
C 0.4186 3.5510 2.2251
C 1.4444 2.6080 2.3552
N 1.3701 1.4245 1.6943
C -2.4818 -2.0387 -0.7904
C -3.8316 -2.3811 -0.6702
H -8.2334 -1.1063 -1.0927
H -5.2061 0.5618 -1.7138
H -2.8426 1.1517 -1.9266
H 0.0662 -2.1486 0.9281
H 1.1003 -1.1370 1.9519
H 1.2392 -3.7907 -0.3162
H 3.2651 -4.6136 -1.4375
H 5.2570 -0.8927 -0.5503
H 3.2478 -0.0766 0.5616
H -1.5825 1.7508 0.1300
H -2.4463 6.1491 1.8723
H -0.4956 6.6498 3.2959
H 1.3315 5.0142 3.5350
H 2.3042 2.8087 2.9822
H -1.7259 -2.7719 -0.5420
H -4.0891 -3.3733 -0.3219
*
