! B3LYP 6-31G* SP

* xyz 0 1
C 1.9074 1.2005 -1.6237
C 1.8502 0.4874 -0.2613
C 2.9196 -0.5819 -0.1130
C 3.2247 -1.4844 -1.1527
C 4.1960 -2.4724 -0.9716
C 4.8716 -2.5792 0.2455
C 4.5751 -1.6974 1.2878
Cl 5.4116 -1.8414 2.8219
C 3.6025 -0.7072 1.1120
N 0.5017 -0.0460 0.0457
C -0.0980 0.3418 1.3001
O 0.3352 -0.1659 2.3710
C -1.1751 1.3593 1.3638
C -1.3608 2.2869 0.3225
C -2.3915 3.2296 0.3873
C -3.2477 3.2574 1.4904
C -3.0724 2.3440 2.5321
C -2.0373 1.4051 2.4757
C -0.1717 -1.0407 -0.8261
C -0.3052 -2.4117 -0.1801
N 0.5578 -2.8472 0.8708
O -1.1401 -3.2320 -0.6510
C -1.5116 -0.5064 -1.3128
C -1.5852 0.1942 -2.5315
C -2.7948 0.7476 -2.9612
C -3.9455 0.6106 -2.1802
C -3.8863 -0.0745 -0.9650
C -2.6790 -0.6294 -0.5309
H 1.6002 0.5457 -2.4614
H 2.9454 1.5470 -1.8201
H 1.2529 2.0948 -1.6222
H 2.0872 1.2924 0.4738
H 2.7242 -1.4296 -2.1081
H 4.4250 -3.1592 -1.7768
H 5.6237 -3.3483 0.3777
H 3.3738 -0.0412 1.9348
H -0.7216 2.2778 -0.5454
H -2.5266 3.9393 -0.4199
H -4.0468 3.9868 1.5369
H -3.7375 2.3657 3.3869
H -1.9207 0.7071 3.2941
H 0.4514 -1.2266 -1.7219
H 1.3108 -2.2431 1.2583
H 0.4553 -3.8109 1.2610
H -0.7049 0.3190 -3.1504
H -2.8393 1.2884 -3.8973
H -4.8807 1.0458 -2.5104
H -4.7733 -0.1649 -0.3510
H -2.6495 -1.1326 0.4262
*
