! B3LYP 6-31G* SP

* xyz 0 1
C -2.0641 -1.2215 -3.6282
C -1.6075 0.0290 -2.8850
N -1.2266 -0.3068 -1.5031
C 0.0166 -1.0023 -1.2782
O 1.0174 -0.7397 -1.9996
C 0.1336 -2.0385 -0.2281
C -0.9193 -2.9479 -0.0344
C -0.8299 -3.9345 0.9488
C 0.3112 -4.0255 1.7456
C 1.3661 -3.1280 1.5652
C 1.2863 -2.1228 0.5807
O 2.3145 -1.1851 0.3965
C 3.4771 -1.0803 1.2126
C 4.2698 0.1275 0.7854
C 5.5045 -0.0463 0.1354
C 6.2450 1.0608 -0.2864
C 5.7599 2.3516 -0.0710
C 4.5307 2.5407 0.5646
C 3.7785 1.4378 0.9928
C 2.5060 1.6707 1.6343
N 1.4858 1.8558 2.1483
C -1.9702 0.2404 -0.3490
C -3.4653 -0.1260 -0.4068
C -4.1972 0.3164 0.8760
C -3.6081 1.5942 1.5118
C -2.9358 2.5005 0.4647
N -2.4618 3.7328 1.0964
C -1.7563 1.7704 -0.2248
H -2.9298 -1.6802 -3.1054
H -2.3701 -0.9516 -4.6607
H -1.2376 -1.9612 -3.6829
H -0.7468 0.4874 -3.4182
H -2.4295 0.7741 -2.9072
H -1.8042 -2.9039 -0.6564
H -1.6446 -4.6332 1.0893
H 0.3790 -4.7935 2.5054
H 2.2372 -3.2219 2.1988
H 3.1832 -0.9644 2.2785
H 4.0814 -2.0088 1.1179
H 5.8960 -1.0394 -0.0469
H 7.1958 0.9174 -0.7835
H 6.3356 3.2071 -0.4002
H 4.1645 3.5487 0.7198
H -1.5788 -0.2134 0.5895
H -3.5839 -1.2229 -0.5355
H -3.9475 0.3677 -1.2769
H -4.1553 -0.5047 1.6246
H -5.2690 0.4854 0.6326
H -2.8558 1.3103 2.2811
H -4.4213 2.1485 2.0290
H -3.6954 2.7613 -0.3087
H -2.0526 4.3448 0.3531
H -3.2898 4.2511 1.4709
H -1.6018 2.2315 -1.2234
H -0.8196 1.9406 0.3507
*
