! B3LYP 6-31G* SP

* xyz 0 1
O -4.1239 3.1416 0.3065
C -4.1323 1.8833 0.3815
C -3.0460 1.1712 1.1367
C -2.7371 -0.2077 0.4896
C -2.0418 -0.0095 -0.8984
C -0.8806 -0.9789 -1.1346
N 0.1027 -0.8441 -0.0498
C 1.5156 -0.8799 -0.3462
O 1.9052 -1.3364 -1.4562
N 2.4865 -0.4260 0.6162
C 3.8702 -0.1901 0.3031
C 4.2614 0.3398 -0.9386
C 5.6111 0.5836 -1.2084
C 6.5907 0.3186 -0.2447
O 7.9309 0.5807 -0.5721
C 9.0463 0.3694 0.2908
F 8.9212 1.1441 1.4301
F 10.2015 0.7360 -0.3721
F 9.1356 -0.9671 0.6363
C 6.1980 -0.1915 1.0076
C 4.8480 -0.4345 1.2779
C -0.3683 -0.7331 1.3397
C -1.8644 -1.0549 1.4539
O -3.9681 -0.9190 0.2891
C -5.1325 -0.3053 -0.1959
C -6.1912 -1.0877 -0.6780
Cl -6.0803 -2.8403 -0.6674
C -7.3385 -0.4706 -1.1891
C -7.4338 0.9237 -1.2153
C -6.3881 1.7087 -0.7211
C -5.2366 1.0970 -0.2001
H -3.4059 1.0320 2.1790
H -2.1298 1.8002 1.1774
H -1.6327 1.0211 -0.9910
H -2.7783 -0.1276 -1.7227
H -1.2555 -2.0245 -1.1723
H -0.4236 -0.7397 -2.1196
H 2.2034 -0.3266 1.6157
H 3.5255 0.5896 -1.6912
H 5.8975 0.9898 -2.1703
H 6.9235 -0.4023 1.7803
H 4.5629 -0.8246 2.2471
H -0.1758 0.2946 1.7153
H 0.1831 -1.4563 1.9792
H -2.0005 -2.1334 1.2153
H -2.1925 -0.9267 2.5083
H -8.1555 -1.0705 -1.5694
H -8.3227 1.3965 -1.6126
H -6.4845 2.7871 -0.7341
*
