! B3LYP 6-31G* SP

* xyz 0 1
C -7.3732 -0.5861 2.4008
N -6.4751 -0.5934 1.2326
C -5.1270 -0.3774 1.4081
O -4.6523 -0.1970 2.5632
C -4.2869 -0.3501 0.2903
C -2.8796 -0.1372 0.2269
C -2.0145 0.0936 1.4407
C -0.5709 0.2963 1.0822
O 0.2244 -0.6799 1.1481
N -0.1206 1.5817 0.6268
C 1.2286 1.8612 0.2324
N 2.2286 0.9545 0.2524
C 3.4106 1.4822 -0.1742
C 4.6488 0.6606 -0.2275
C 5.8013 1.1051 -0.9029
C 6.9536 0.3146 -0.9422
C 6.9785 -0.9413 -0.3085
O 8.1105 -1.7731 -0.3176
C 9.3523 -1.4691 -0.9492
F 9.8978 -0.3218 -0.4014
F 9.1668 -1.3005 -2.3097
F 10.2271 -2.5187 -0.7460
C 5.8325 -1.3880 0.3588
F 5.8359 -2.5967 0.9749
C 4.6794 -0.5988 0.3983
C 3.3405 2.8336 -0.5330
S 1.7577 3.3581 -0.3083
N -2.3531 -0.1519 -1.0332
S -3.6273 -0.4267 -2.0690
C -4.8553 -0.5362 -0.9484
N -6.1854 -0.7426 -1.1406
C -6.7327 -0.8768 -2.4981
C -7.0034 -0.7373 -0.0360
O -8.2525 -0.8591 -0.1848
H -6.8578 -0.9621 3.3103
H -7.7333 0.4476 2.5869
H -8.2465 -1.2541 2.2413
H -2.1022 -0.7805 2.1214
H -2.3769 0.9928 1.9828
H -0.8159 2.3594 0.5686
H 5.8187 2.0555 -1.4170
H 7.8167 0.6914 -1.4723
H 3.8120 -0.9741 0.9269
H 4.1510 3.4596 -0.8775
H -7.6709 -1.4713 -2.4979
H -6.9395 0.1303 -2.9172
H -6.0201 -1.4102 -3.1623
*
