! B3LYP def2-TZVP SP

* xyz 0 1
O -2.2142 -1.7077 0.6968
C -1.8744 -0.5305 0.3955
N -2.8679 0.5074 0.3395
C -4.2792 0.2605 0.2142
C -4.7702 -0.8370 -0.5139
C -6.1471 -1.0428 -0.6408
C -7.0591 -0.1391 -0.0696
C -8.5434 -0.3887 -0.1640
F -9.2432 0.8052 -0.1330
F -8.8553 -1.0418 -1.3440
F -8.9416 -1.1720 0.9030
C -6.5659 0.9543 0.6623
C -5.1890 1.1599 0.7877
N -0.4857 -0.2281 0.1546
C -0.1058 1.0032 -0.5550
C 1.2389 0.8246 -1.2698
C 2.3859 0.4003 -0.3085
C 3.1338 1.6603 0.2039
C 4.3934 1.2842 0.9985
C 5.2346 0.2755 0.2608
C 6.5874 0.1109 0.5934
C 7.3633 -0.8429 -0.0705
C 6.7927 -1.6441 -1.0626
C 5.4407 -1.4993 -1.3917
Br 4.6772 -2.6150 -2.7451
C 4.6552 -0.5480 -0.7254
O 3.3013 -0.4075 -1.0588
C 1.8502 -0.4389 0.8923
C 0.5554 -1.1845 0.5583
H -2.5572 1.4921 0.4992
H -4.0933 -1.5261 -1.0010
H -6.4989 -1.9063 -1.1914
H -7.2449 1.6507 1.1382
H -4.8293 2.0146 1.3469
H -0.0453 1.8449 0.1677
H -0.8699 1.2507 -1.3242
H 1.4925 1.7583 -1.8175
H 1.1021 0.0376 -2.0449
H 3.4499 2.2839 -0.6618
H 2.4649 2.2823 0.8380
H 4.9855 2.2067 1.1845
H 4.1066 0.8613 1.9849
H 7.0401 0.7220 1.3645
H 8.4082 -0.9624 0.1856
H 7.4007 -2.3802 -1.5726
H 2.6169 -1.1724 1.2245
H 1.6358 0.2217 1.7618
H 0.2357 -1.7449 1.4641
H 0.7322 -1.9128 -0.2625
*
