! B3LYP 6-31G* SP

* xyz 0 1
C -5.3716 -2.3950 1.3951
N -4.8948 -1.1409 0.7874
C -4.1621 -1.1815 -0.3764
O -3.9135 -2.2781 -0.9471
C -3.6925 0.0166 -0.9092
C -3.9546 1.1893 -0.2694
C -3.3423 2.2062 -0.9793
C -2.7233 1.5761 -2.0507
N -2.9419 0.2394 -2.0121
C -2.3787 -0.7358 -2.9478
C -1.1886 -1.4132 -2.3376
O -1.1981 -2.6647 -2.1931
N -0.0442 -0.6355 -1.9523
C 1.0486 -1.1235 -1.1611
N 2.1479 -0.3815 -0.9118
C 3.0408 -1.0275 -0.1093
C 4.3274 -0.3940 0.2818
C 5.1115 -0.9063 1.3320
C 6.3168 -0.2934 1.6857
C 6.7685 0.8463 0.9983
C 8.0652 1.5250 1.3702
F 8.7285 0.8472 2.3790
F 8.8930 1.5803 0.2629
F 7.8032 2.8125 1.8029
C 5.9823 1.3666 -0.0442
F 6.3828 2.4720 -0.7230
C 4.7766 0.7530 -0.3963
C 2.6378 -2.3073 0.2879
S 1.1284 -2.6150 -0.3859
N -4.6712 1.2482 0.8875
C -4.8867 2.5360 1.5643
C -5.1169 0.0633 1.4324
O -5.7284 0.0762 2.5379
H -5.5731 -3.1687 0.6237
H -4.6083 -2.7784 2.1046
H -6.3287 -2.2391 1.9371
H -3.3219 3.2628 -0.7490
H -2.1292 2.0741 -2.8064
H -2.0592 -0.2256 -3.8822
H -3.1540 -1.4783 -3.2338
H -0.0055 0.3633 -2.2564
H 4.7941 -1.7705 1.8982
H 6.8897 -0.7140 2.5020
H 4.1980 1.1754 -1.2081
H 3.1894 -3.0027 0.9043
H -3.9696 2.8227 2.1204
H -5.1319 3.3279 0.8256
H -5.7396 2.4905 2.2733
*
