! B3LYP 6-31G* SP

* xyz 0 1
C -5.9913 1.4820 -0.6776
C -5.5726 0.9513 0.6872
N -4.4517 0.0311 0.5459
N -4.5743 -1.2684 0.3399
N -3.3679 -1.7927 0.1987
C -2.5163 -0.7538 0.3191
C -1.0480 -0.8392 0.2249
S -0.0294 0.4938 0.3595
C 1.3838 -0.3985 0.1496
C 2.7616 0.1456 0.1492
C 2.9962 1.5205 0.3343
C 4.3003 2.0224 0.3321
C 5.3839 1.1621 0.1458
C 5.1695 -0.2095 -0.0400
N 6.2796 -1.0908 -0.2308
C 3.8604 -0.7136 -0.0378
N 1.0983 -1.7091 -0.0233
C -0.2373 -1.9651 0.0163
O -0.7057 -3.2682 -0.1433
N -3.1824 0.3987 0.5297
H -5.1456 2.0236 -1.1523
H -6.3025 0.6422 -1.3346
H -6.8453 2.1818 -0.5605
H -5.2790 1.8003 1.3416
H -6.4304 0.4266 1.1608
H 2.1761 2.2110 0.4810
H 4.4712 3.0816 0.4752
H 6.3896 1.5635 0.1461
H 7.2580 -0.7253 -0.2341
H 6.1316 -2.1152 -0.3702
H 3.7042 -1.7757 -0.1822
H -1.6845 -3.5129 -0.1175
*
