! B3LYP 6-31G* SP

* xyz 0 1
C -4.8374 2.8785 -0.9472
N -4.5493 1.4924 -0.5281
C -3.7187 0.7185 -1.2905
O -3.2178 1.2131 -2.3363
C -3.4171 -0.6111 -0.9085
C -2.5911 -1.4940 -1.6869
C -1.9438 -1.1270 -3.0114
C -0.7234 -0.2779 -2.8017
O -0.6230 0.8194 -3.4125
N 0.3435 -0.7458 -1.9622
C 1.3570 0.0988 -1.4016
N 2.4177 -0.3920 -0.7286
C 3.2204 0.5929 -0.2348
C 4.4463 0.2724 0.5423
C 4.6466 -1.0357 1.0164
C 5.7935 -1.3606 1.7406
C 6.7591 -0.3888 2.0056
F 7.8687 -0.7347 2.7066
C 6.5849 0.9280 1.5466
C 7.6494 1.9630 1.8261
F 7.8862 2.0302 3.1863
F 7.2730 3.2201 1.3878
F 8.8183 1.6039 1.1825
C 5.4295 1.2476 0.8062
C 2.7743 1.8910 -0.5085
S 1.3479 1.7813 -1.3912
C -2.3240 -2.7848 -1.2045
C -2.8540 -3.2256 -0.0052
C -3.6673 -2.3928 0.7472
C -3.9714 -1.0783 0.3186
N -4.7805 -0.2562 1.0747
C -5.3590 -0.7374 2.3491
C -5.0517 1.0215 0.6534
O -5.7718 1.7799 1.3647
H -4.0345 3.5527 -0.5792
H -5.8171 3.2315 -0.5582
H -4.9032 2.9584 -2.0534
H -1.6275 -2.0388 -3.5626
H -2.6741 -0.6386 -3.6880
H 0.3723 -1.7614 -1.7164
H 3.9138 -1.8114 0.8326
H 5.9338 -2.3727 2.0982
H 5.3090 2.2501 0.4220
H 3.2310 2.8184 -0.1939
H -1.6923 -3.4633 -1.7621
H -2.6327 -4.2252 0.3466
H -4.0466 -2.7994 1.6728
H -6.0224 0.0031 2.8410
H -5.9789 -1.6407 2.1672
H -4.5455 -0.9725 3.0682
*
