! B3LYP 6-31G* SP

* xyz 0 1
C -3.8403 2.5610 -0.2735
N -4.5016 1.2837 0.0423
C -3.9120 0.4158 0.9334
O -2.8051 0.6875 1.4744
C -4.5689 -0.7696 1.2357
C -4.2678 -1.8416 2.0548
C -3.0271 -2.0769 2.8628
C -1.8886 -2.4585 1.9646
O -1.9406 -3.5501 1.3355
N -0.7479 -1.5939 1.8408
C 0.1978 -1.6498 0.7640
N 1.3061 -0.8805 0.7348
C 2.0316 -1.0577 -0.4054
C 3.2971 -0.3142 -0.6395
C 3.8711 -0.2251 -1.9224
C 5.0624 0.4805 -2.1234
Cl 5.7283 0.5956 -3.7460
C 5.6995 1.1070 -1.0416
O 6.8894 1.8107 -1.2334
C 8.1490 1.1480 -1.2439
C 9.2618 2.1627 -1.4666
F 9.2520 3.1011 -0.4503
F 9.0785 2.8017 -2.6795
F 10.4846 1.5167 -1.4754
C 5.1272 1.0388 0.2357
Cl 5.8981 1.8292 1.6023
C 3.9360 0.3332 0.4339
C 1.4840 -1.9842 -1.2991
S 0.0583 -2.5775 -0.6327
C -5.3372 -2.7197 1.9064
O -6.2256 -2.2120 1.0715
C -5.7708 -1.0486 0.6662
N -6.3751 -0.1978 -0.2059
C -7.6934 -0.5146 -0.7695
C -5.7431 0.9910 -0.4980
O -6.3075 1.8223 -1.2649
H -4.1250 3.3236 0.4817
H -4.1224 2.9255 -1.2852
H -2.7348 2.4480 -0.2790
H -2.7850 -1.1598 3.4399
H -3.2031 -2.8944 3.5946
H -0.6095 -0.8491 2.5614
H 3.3919 -0.6803 -2.7778
H 8.1715 0.3903 -2.0567
H 8.3072 0.6335 -0.2715
H 3.5165 0.2863 1.4313
H 1.8957 -2.2935 -2.2491
H -5.4402 -3.6816 2.3912
H -7.7224 -0.2595 -1.8508
H -7.9243 -1.5983 -0.6825
H -8.4764 0.0646 -0.2357
*
