! B3LYP 6-31G* SP

* xyz 0 1
C -1.0545 2.8389 -2.2013
C -2.0007 1.9912 -1.4105
S -3.1554 2.6145 -0.3566
C -3.7606 1.1172 0.1140
C -3.0847 0.1029 -0.5430
C -2.0768 0.5887 -1.4234
C -1.1289 -0.2515 -2.2498
C 0.1946 -0.4020 -1.5568
O 1.2341 0.0383 -2.1187
N 0.2757 -1.0478 -0.2761
C 1.4831 -1.1524 0.4885
N 2.6719 -0.6414 0.1040
C 3.6525 -0.8724 1.0217
C 5.0421 -0.3899 0.8052
C 6.1124 -0.8422 1.6010
C 7.4103 -0.3759 1.3765
C 7.6651 0.5445 0.3563
Cl 9.3127 1.1061 0.1066
C 6.6097 1.0001 -0.4488
Cl 6.8866 2.1562 -1.7448
C 5.3095 0.5326 -0.2243
C 3.2253 -1.5741 2.1553
S 1.5846 -1.9054 1.9838
C -3.4709 -1.2202 -0.2759
O -2.9027 -2.1828 -0.8584
N -4.4833 -1.4624 0.6225
C -4.9123 -2.8489 0.8810
C -5.1525 -0.4176 1.2233
O -6.1312 -0.6577 1.9862
N -4.7709 0.8820 0.9969
C -5.4795 2.0068 1.6279
H -1.2020 3.9117 -1.9570
H -0.0078 2.5624 -1.9596
H -1.2369 2.6938 -3.2862
H -0.9760 0.2398 -3.2348
H -1.5393 -1.2471 -2.4936
H -0.5920 -1.4521 0.1382
H 5.9604 -1.5663 2.3885
H 8.2213 -0.7357 1.9972
H 4.5077 0.8991 -0.8534
H 3.8200 -1.8481 3.0147
H -4.0602 -3.5574 0.8021
H -5.3131 -2.9630 1.9108
H -5.6964 -3.1383 0.1501
H -6.2093 2.4370 0.9101
H -6.0190 1.6929 2.5463
H -4.7624 2.7955 1.9398
*
