! B3LYP 6-31G* SP

* xyz 0 1
C 6.1196 0.1373 0.2421
N 4.7420 -0.3073 0.1009
N 4.3782 -1.5670 -0.0612
N 3.0568 -1.6286 -0.0839
C 2.6425 -0.3549 0.0827
C 1.2234 0.0404 0.1289
S -0.0504 -1.0504 -0.0134
C -1.2476 0.1251 0.1346
C -2.7086 -0.1154 0.1010
C -3.6050 0.9609 0.2369
C -4.9856 0.7416 0.2061
C -5.4866 -0.5511 0.0399
C -4.6077 -1.6282 -0.0960
F -5.0955 -2.8830 -0.2573
C -3.2256 -1.4144 -0.0660
N -0.6959 1.3498 0.2923
C 0.6641 1.3170 0.2906
O 1.3934 2.4953 0.4410
N 3.6890 0.4834 0.2095
H 6.7919 -0.5172 -0.3518
H 6.2202 1.1811 -0.1236
H 6.4155 0.0935 1.3109
H -3.2405 1.9722 0.3668
H -5.6677 1.5755 0.3114
H -6.5560 -0.7171 0.0166
H -2.5662 -2.2657 -0.1735
H 2.4022 2.5273 0.4424
*
