! B3LYP 6-31G* SP

* xyz 0 1
C 0.1257 -2.8035 -3.0070
C -0.1552 -3.4812 -1.6612
C -0.2922 -2.5273 -0.4361
C -1.7381 -2.2225 -0.0391
C -2.7410 -1.9858 -1.0025
C -4.0330 -1.6224 -0.6131
C -4.3465 -1.4877 0.7395
F -5.5975 -1.1227 1.1131
C -3.3696 -1.7238 1.7072
C -2.0747 -2.0896 1.3268
F -1.1420 -2.2819 2.2945
N 0.5432 -1.3027 -0.5585
C -0.0415 -0.0461 -1.0731
C -0.8179 0.7078 -0.0135
C -0.4166 0.7136 1.3341
C -1.1622 1.4048 2.2898
C -2.3122 2.1016 1.9161
C -2.7261 2.1211 0.5743
C -3.9518 2.8514 0.1827
O -4.3321 2.8631 -1.0194
O -4.6999 3.5314 1.1403
C -1.9643 1.4310 -0.3861
C 1.9751 -1.4239 -0.3378
O 2.5022 -2.5702 -0.3365
C 2.8684 -0.2639 -0.1038
C 4.2626 -0.3196 -0.1145
C 4.6407 0.9666 0.1955
C 5.9177 1.5068 0.3299
C 6.0128 2.8676 0.6647
C 4.8473 3.6365 0.8543
C 3.5895 3.0323 0.7060
N 3.5445 1.7160 0.3801
N 2.4565 0.9879 0.2083
H 1.0752 -2.2301 -2.9708
H -0.6985 -2.1321 -3.3116
H 0.2310 -3.5832 -3.7905
H 0.6871 -4.1826 -1.4719
H -1.0616 -4.1179 -1.7559
H 0.1165 -3.1201 0.4131
H -2.5335 -2.0656 -2.0569
H -4.7897 -1.4357 -1.3642
H -3.6123 -1.6122 2.7562
H 0.7312 0.6130 -1.5157
H -0.7138 -0.2827 -1.9219
H 0.4514 0.1572 1.6590
H -0.8530 1.3915 3.3270
H -2.8775 2.6223 2.6786
H -5.5422 4.0322 0.8833
H -2.2722 1.4379 -1.4248
H 4.8994 -1.1720 -0.3128
H 6.8041 0.9028 0.1835
H 6.9860 3.3271 0.7792
H 4.9214 4.6845 1.1136
H 2.6791 3.6008 0.8487
*
