! B3LYP 6-31G* SP

* xyz -1 1
C -1.0253 -3.3864 2.3125
C -1.3915 -2.7742 0.9789
C -1.1935 -1.3927 0.7429
N -0.5379 -0.5555 1.7041
C 0.9099 -0.6576 1.9158
C 1.6564 0.0703 0.8312
C 2.1026 1.3836 0.9513
C 2.6265 1.7081 -0.2808
C 3.1917 2.8978 -0.7434
Cl 3.3744 4.2972 0.3010
C 3.6232 2.9426 -2.0819
C 3.4846 1.8124 -2.9160
C 2.9158 0.6257 -2.4210
C 2.4947 0.6055 -1.0875
N 1.9159 -0.4116 -0.4161
C 1.6180 -1.7377 -0.9610
S -1.4445 0.7101 2.4746
O -2.9132 0.5145 2.2199
O -1.2087 0.6469 3.9577
C -0.9617 2.2798 1.8391
C -1.1236 2.5596 0.4767
C -0.7243 3.7935 -0.0439
C -0.1620 4.7707 0.7937
C 0.2653 6.0738 0.2392
O 0.8047 6.9380 0.9809
O 0.0914 6.3571 -1.1100
C -0.0081 4.4877 2.1629
C -0.4089 3.2528 2.6809
N -1.6152 -0.8350 -0.4216
C -2.1962 -1.5578 -1.4087
C -2.3599 -2.9369 -1.2641
C -2.9224 -3.6952 -2.3022
C -3.0690 -5.0749 -2.1627
C -2.6563 -5.7069 -0.9901
C -2.1029 -4.9636 0.0560
C -1.9492 -3.5641 -0.0607
H -1.8747 -3.9871 2.7016
H -0.1318 -4.0363 2.1932
H -0.8096 -2.6213 3.0869
H 1.2286 -1.7185 1.9612
H 1.1747 -0.2153 2.9003
H 2.0330 2.0221 1.8215
H 4.0646 3.8477 -2.4780
H 3.8190 1.8596 -3.9443
H 2.8063 -0.2392 -3.0620
H 2.5158 -2.1434 -1.4729
H 1.3352 -2.4534 -0.1646
H 0.7893 -1.6620 -1.6949
H -1.5544 1.8225 -0.1855
H -0.8554 3.9811 -1.1024
H 0.4238 5.2196 2.8337
H -0.2747 3.0558 3.7362
H -2.5060 -1.0552 -2.3165
H -3.2404 -3.2210 -3.2234
H -3.4974 -5.6568 -2.9684
H -2.7608 -6.7787 -0.8929
H -1.7860 -5.4977 0.9415
*
