! B3LYP 6-31G* SP

* xyz 0 1
C -2.1552 2.0881 1.9952
C -3.2338 1.2001 1.3566
C -3.4916 -0.0257 2.2409
C -2.8516 0.7570 -0.0495
N -1.5309 0.6243 -0.3360
C -1.0598 0.1922 -1.5299
N 0.3527 -0.0027 -1.6797
C 1.2526 1.1520 -1.7704
C 2.0532 1.3164 -0.5066
C 3.3666 0.8281 -0.4290
C 4.0823 0.9117 0.7680
C 3.4953 1.4975 1.9068
O 4.1637 1.5970 3.1371
C 5.4997 1.1626 3.3843
F 5.8251 1.4381 4.6984
F 6.3792 1.8359 2.5547
F 5.6055 -0.2007 3.1766
C 2.1925 2.0022 1.8188
C 1.4768 1.9158 0.6220
S 0.9966 -1.6128 -1.5318
O -0.0740 -2.6272 -1.8233
O 2.1067 -1.7873 -2.5304
C 1.5896 -1.8679 0.1085
C 2.8889 -2.3393 0.3360
C 3.3746 -2.4648 1.6412
C 2.5650 -2.1245 2.7381
C 3.0873 -2.2356 4.1172
O 2.3914 -1.8492 5.0949
O 4.3548 -2.7643 4.3498
C 1.2540 -1.6752 2.5033
C 0.7703 -1.5556 1.1991
C -1.9557 -0.1241 -2.5704
C -1.4164 -0.5612 -3.9222
C -1.8704 0.2702 -5.1201
C -0.4612 0.4210 -4.5962
C -3.3467 -0.1042 -2.2902
C -4.2944 -0.5633 -3.2334
C -5.6599 -0.5158 -2.9570
C -6.1087 -0.0352 -1.7325
C -5.1966 0.3875 -0.7672
C -3.8059 0.3600 -1.0227
H -2.5125 2.4769 2.9734
H -1.2197 1.5140 2.1690
H -1.9333 2.9556 1.3366
H -4.1488 1.8256 1.3227
H -4.2893 -0.6612 1.8039
H -2.5687 -0.6356 2.3406
H -3.8209 0.2945 3.2534
H 1.9280 1.0207 -2.6427
H 0.6694 2.0802 -1.9575
H 3.8266 0.3539 -1.2873
H 5.0836 0.5094 0.7978
H 1.7321 2.4636 2.6835
H 0.4729 2.3151 0.5736
H 3.5374 -2.5884 -0.4939
H 4.3889 -2.8112 1.7900
H 4.7209 -2.8434 5.2920
H 0.6019 -1.4125 3.3259
H -0.2393 -1.2097 1.0417
H -1.2289 -1.6359 -4.1273
H -1.9397 -0.2945 -6.0725
H -2.5280 1.1356 -4.8929
H 0.3063 -0.0443 -5.2493
H -0.3060 1.4041 -4.1072
H -3.9958 -0.9789 -4.1850
H -6.3730 -0.8654 -3.6932
H -7.1712 -0.0051 -1.5214
H -5.6044 0.7160 0.1771
*
