! B3LYP 6-31G* SP

* xyz 0 1
C -3.7629 0.6498 3.0313
C -3.2115 0.9557 1.6345
N -2.2001 -0.0434 1.2727
C -2.1123 -0.6150 -0.0449
O -3.0694 -0.4579 -0.8528
N -0.9446 -1.3633 -0.4606
C -1.0549 -2.2290 -1.6446
C -0.2047 -3.4788 -1.4707
C 1.2142 -3.1056 -1.1665
C 2.2583 -3.9492 -1.5798
C 3.5795 -3.6554 -1.2391
C 3.8670 -2.5327 -0.4636
C 2.8350 -1.6967 -0.0321
C 1.4985 -1.9589 -0.3944
C 0.3834 -1.0578 0.1246
C 0.7248 0.4032 -0.1085
C 0.9697 1.2557 0.9801
C 1.2702 2.6042 0.7708
C 1.3540 3.1217 -0.5327
C 1.6167 4.5892 -0.7575
F 2.4009 5.1081 0.2584
F 2.2767 4.7885 -1.9581
F 0.4120 5.2666 -0.7875
C 1.0960 2.2714 -1.6209
C 0.7970 0.9227 -1.4114
C -2.6040 2.3647 1.5644
F -2.1100 2.5975 0.2932
F -1.5722 2.4946 2.4775
F -3.5727 3.3134 1.8411
H -4.2037 -0.3696 3.0450
H -4.5580 1.3764 3.3019
H -2.9563 0.6964 3.7937
H -4.0677 0.9112 0.9264
H -1.4673 -0.2653 1.9810
H -2.1066 -2.5548 -1.8012
H -0.7296 -1.6706 -2.5483
H -0.2605 -4.0821 -2.4034
H -0.6056 -4.0892 -0.6328
H 2.0480 -4.8396 -2.1595
H 4.3799 -4.3076 -1.5640
H 4.8905 -2.3150 -0.1868
H 3.0794 -0.8440 0.5888
H 0.3357 -1.2695 1.2136
H 0.9172 0.8805 1.9944
H 1.4299 3.2439 1.6295
H 1.1229 2.6505 -2.6348
H 0.6172 0.2852 -2.2665
*
