! B3LYP 6-31G* SP

* xyz 0 1
O 2.5555 -2.4565 -0.5023
C 2.3037 -1.2279 -0.6366
N 3.3783 -0.2723 -0.6608
C 4.7026 -0.5278 -0.1715
N 5.7136 0.3542 -0.3249
C 6.8608 -0.0800 0.2656
C 8.1332 0.7075 0.2063
F 8.6739 0.8214 1.4739
F 9.0355 0.0625 -0.6175
F 7.8913 1.9743 -0.2931
C 6.7693 -1.3212 0.8926
S 5.1922 -1.8763 0.7120
N 0.9380 -0.7993 -0.8070
C -0.0747 -1.7692 -1.2483
C -1.2836 -1.0515 -1.8557
C -1.9387 -0.0581 -0.8602
C -2.7747 0.9704 -1.6691
C -3.6984 1.8213 -0.7815
C -4.4210 0.9971 0.2499
C -5.5487 1.5233 0.8982
C -6.2107 0.7766 1.8760
C -5.7492 -0.4970 2.2172
C -4.6177 -1.0259 1.5873
Cl -4.0445 -2.6248 2.0372
C -3.9434 -0.2773 0.6114
O -2.8111 -0.8149 -0.0128
C -0.8691 0.6499 0.0334
C 0.5473 0.5947 -0.5498
H 3.1991 0.6700 -1.0749
H 7.5674 -1.8342 1.4119
H -0.3933 -2.3921 -0.3850
H 0.3562 -2.4374 -2.0256
H -2.0308 -1.8053 -2.1876
H -0.9364 -0.5126 -2.7657
H -3.4137 0.4250 -2.4000
H -2.1029 1.6418 -2.2479
H -3.1184 2.6148 -0.2669
H -4.4396 2.3319 -1.4346
H -5.9144 2.5102 0.6450
H -7.0833 1.1858 2.3700
H -6.2686 -1.0701 2.9744
H -0.8369 0.1508 1.0274
H -1.1245 1.7102 0.2312
H 0.5947 1.1759 -1.4961
H 1.2358 1.0622 0.1877
*
