! B3LYP 6-31G* SP

* xyz 0 1
O -7.8374 -0.4913 -0.1892
C -6.8679 -0.9151 -0.8750
O -7.0621 -1.2055 -2.2230
C -5.5372 -1.1019 -0.2561
C -4.4582 -1.5748 -1.0226
C -3.1984 -1.7462 -0.4422
C -2.9967 -1.4466 0.9104
S -1.3941 -1.6076 1.6227
O -0.7086 -2.8010 1.0170
O -1.5062 -1.8237 3.1059
N -0.4645 -0.1726 1.3176
C -1.0111 1.1433 1.6525
C -1.1744 1.9647 0.4031
C -0.0994 2.7239 -0.0890
C -0.2295 3.4361 -1.2850
C -1.4293 3.3909 -2.0002
C -2.5007 2.6325 -1.5209
C -2.3747 1.9190 -0.3254
C 0.9208 -0.2969 0.9789
N 1.8612 -0.1405 1.9482
C 3.1910 -0.2306 1.6849
C 3.6402 -0.4910 0.3796
C 5.0912 -0.5907 0.0785
C 5.5706 -1.5633 -0.8198
C 6.9370 -1.6549 -1.1017
C 7.8387 -0.7790 -0.4933
C 7.3759 0.1905 0.3990
C 6.0106 0.2862 0.6855
C 2.6819 -0.6488 -0.6350
C 1.3197 -0.5506 -0.3420
Cl 0.1461 -0.6991 -1.6415
C -4.0688 -0.9793 1.6812
C -5.3302 -0.8081 1.1037
H -7.9690 -1.0807 -2.6568
H -4.5849 -1.8099 -2.0719
H -2.3805 -2.1082 -1.0506
H -0.3356 1.6602 2.3688
H -1.9914 1.0385 2.1646
H 0.8410 2.7547 0.4475
H 0.6020 4.0184 -1.6604
H -1.5276 3.9407 -2.9272
H -3.4281 2.5941 -2.0776
H -3.2114 1.3324 0.0293
H 3.8943 -0.1151 2.4990
H 4.8919 -2.2638 -1.2900
H 7.2974 -2.4083 -1.7903
H 8.8960 -0.8515 -0.7133
H 8.0752 0.8713 0.8669
H 5.6726 1.0568 1.3668
H 2.9904 -0.8232 -1.6583
H -3.9271 -0.7343 2.7259
H -6.1407 -0.4402 1.7204
*
