! B3LYP 6-31G* SP

* xyz 0 1
C 9.0045 -1.1831 -1.1738
C 7.9087 -2.1689 -1.5658
C 6.5837 -1.7508 -0.9870
C 5.7347 -0.8972 -1.7050
C 4.5188 -0.4827 -1.1544
C 4.1290 -0.9084 0.1294
C 2.8323 -0.4529 0.6970
C 2.2304 -1.0034 1.8341
S 0.7774 -0.2003 2.1007
C 0.9717 0.8181 0.7755
N 0.0343 1.8051 0.3230
C -1.1365 2.2071 1.0510
O -1.2440 1.9568 2.2823
C -2.2103 3.0027 0.3637
C -3.5936 2.4763 0.7074
C -4.3207 3.2174 1.6521
C -5.5895 2.8267 2.0443
C -6.1647 1.6823 1.5134
C -5.4763 0.8831 0.5693
C -4.1696 1.2780 0.1590
C -3.5062 0.4475 -0.7770
O -2.3335 0.7155 -1.1527
N -4.1217 -0.6637 -1.2835
C -3.4013 -1.5194 -2.2474
C -5.3637 -1.0332 -0.8463
O -5.8804 -2.1009 -1.2846
N -6.0486 -0.2651 0.0614
C -7.4008 -0.6848 0.4926
N 2.1178 0.5519 0.1149
C 4.9962 -1.7505 0.8531
C 6.2117 -2.1640 0.3001
H 9.9715 -1.5086 -1.6117
H 9.1098 -1.1435 -0.0683
H 8.7645 -0.1676 -1.5560
H 8.1810 -3.1837 -1.2021
H 7.8431 -2.2219 -2.6746
H 6.0145 -0.5514 -2.6926
H 3.8819 0.1695 -1.7386
H 2.6001 -1.8198 2.4376
H 0.2073 2.2373 -0.6123
H -2.0661 3.0292 -0.7357
H -2.0970 4.0615 0.6828
H -3.9019 4.1133 2.0945
H -6.1336 3.4167 2.7710
H -7.1558 1.4346 1.8641
H -2.7452 -0.9167 -2.9113
H -2.7830 -2.2601 -1.6981
H -4.1016 -2.0571 -2.9215
H -8.1411 0.1034 0.2376
H -7.4073 -0.8735 1.5873
H -7.7515 -1.6169 0.0046
H 4.7537 -2.0805 1.8530
H 6.8668 -2.8034 0.8789
*
