! B3LYP 6-31G* SP

* xyz 0 1
C -6.6391 3.2406 -1.7873
C -6.4954 1.9345 -0.9865
N -7.8016 1.5107 -0.4752
C -5.4792 2.0913 0.1752
O -4.2531 2.5638 -0.3302
C -5.2041 0.7509 0.8862
C -6.3567 0.3091 1.7589
C -6.9240 -0.9102 1.7246
C -6.5124 -2.0196 0.7906
C -7.0141 -1.7586 -0.6084
C -6.3257 -2.0316 -1.7316
C -4.9193 -2.5642 -1.7546
C -4.8685 -3.9967 -1.2816
C -3.7835 -4.5568 -0.7193
C -2.5174 -3.8089 -0.3905
C -2.6428 -3.1531 0.9619
C -2.2633 -1.8941 1.2487
C -1.7367 -0.9104 0.2395
C -1.0486 0.2478 0.9142
C 0.1554 0.1722 1.5160
C 0.9942 -1.0819 1.6172
C 1.4573 -1.6050 0.2770
C 2.3220 -0.9752 -0.5440
C 2.9763 0.3491 -0.2531
C 4.2667 0.1559 0.5511
C 4.8049 1.4699 1.1403
C 5.0967 2.5711 0.1034
C 6.2482 2.2424 -0.8645
C 7.6380 2.2568 -0.1874
C 8.2426 0.8406 -0.0243
O 8.4802 0.2355 -1.2738
C 9.5209 0.8346 0.8648
C 10.6893 1.6395 0.2745
N 9.9672 -0.5340 1.1395
H -7.4282 3.1305 -2.5600
H -5.6888 3.4853 -2.3052
H -6.9167 4.0796 -1.1167
H -6.1175 1.1538 -1.6829
H -8.4340 1.3063 -1.2850
H -8.2275 2.2935 0.0695
H -5.8812 2.8143 0.9276
H -4.2648 3.5560 -0.2557
H -4.9365 -0.0077 0.1263
H -4.3195 0.8711 1.5489
H -6.7174 1.0140 2.5025
H -7.7280 -1.1217 2.4251
H -6.9821 -2.9632 1.1401
H -5.4161 -2.1634 0.8481
H -8.0271 -1.3872 -0.7184
H -6.7991 -1.8173 -2.6858
H -4.2874 -1.9047 -1.1352
H -4.5298 -2.5227 -2.7946
H -5.7241 -4.6367 -1.4917
H -3.8289 -5.6102 -0.4564
H -2.2704 -3.1012 -1.2063
H -1.6836 -4.5396 -0.3319
H -2.9913 -3.7714 1.7813
H -2.3727 -1.5653 2.2795
H -1.0368 -1.3919 -0.4736
H -2.5875 -0.5216 -0.3573
H -1.5543 1.2092 0.9030
H 0.5412 1.0748 1.9790
H 0.4108 -1.8708 2.1326
H 1.8764 -0.8861 2.2635
H 1.0677 -2.5670 -0.0438
H 2.5653 -1.4548 -1.4901
H 3.2309 0.8168 -1.2293
H 2.2809 1.0379 0.2667
H 5.0343 -0.3274 -0.0855
H 4.0771 -0.5379 1.3980
H 4.0585 1.8652 1.8601
H 5.7224 1.2544 1.7249
H 5.3386 3.5116 0.6443
H 4.1784 2.7916 -0.4812
H 6.0543 1.2824 -1.3872
H 6.2470 3.0254 -1.6561
H 7.5817 2.7461 0.8077
H 8.3189 2.8776 -0.8078
H 7.4841 0.2229 0.5038
H 9.0190 0.8657 -1.8207
H 9.2589 1.3049 1.8370
H 10.4118 2.7053 0.1428
H 11.0098 1.2210 -0.7042
H 11.5547 1.6082 0.9687
H 9.2042 -1.0472 1.6440
H 10.1503 -1.0246 0.2369
*
