! B3LYP 6-31G* SP

* xyz 0 1
N -5.0576 0.8043 0.0637
C -4.0713 1.0747 -0.9790
C -3.4769 -0.2297 -1.5174
C -2.7239 -0.9691 -0.4501
C -3.2127 -1.9993 0.3475
N -2.2787 -2.3818 1.2481
C -1.2099 -1.5952 1.0317
C -0.0057 -1.5965 1.7314
C 0.9779 -0.6658 1.3515
C 0.7449 0.2380 0.2796
O 1.7015 1.1884 -0.1058
C 3.0916 1.0218 -0.0230
C 3.8948 2.1533 0.1680
C 5.2859 2.0291 0.2401
C 5.8844 0.7730 0.1087
C 5.0927 -0.3592 -0.1023
C 3.7014 -0.2380 -0.1745
C -0.4936 0.2218 -0.3906
C -1.4453 -0.7166 0.0071
H -5.3848 1.7241 0.4380
H -5.8888 0.3515 -0.3817
H -3.2589 1.7123 -0.5656
H -4.5518 1.6302 -1.8150
H -2.7870 0.0026 -2.3566
H -4.2879 -0.8744 -1.9203
H -4.2010 -2.4352 0.2802
H -2.3776 -3.1268 1.9730
H 0.1649 -2.2840 2.5498
H 1.9076 -0.6339 1.9039
H 3.4384 3.1298 0.2682
H 5.8998 2.9068 0.3960
H 6.9612 0.6781 0.1630
H 5.5576 -1.3298 -0.2173
H 3.1056 -1.1203 -0.3674
H -0.6965 0.9156 -1.1963
*
