! B3LYP 6-31G* SP

* xyz 0 1
O 6.3359 1.6174 -2.5048
C 5.9403 1.3959 -1.3284
O 6.6953 1.8650 -0.2566
C 4.6865 0.6488 -1.0869
C 4.2533 0.3943 0.2262
C 3.0637 -0.3020 0.4568
C 2.2885 -0.7521 -0.6185
S 0.7518 -1.5593 -0.3064
O 0.1803 -2.1024 -1.5863
O 1.0026 -2.7021 0.6377
N -0.3780 -0.4378 0.4034
C -1.3671 -0.9278 1.3712
C -2.3602 -1.9162 0.7267
C -3.1659 -1.2398 -0.4030
C -4.1853 -2.2097 -1.0136
C -5.1253 -2.7693 0.0599
C -4.3322 -3.4475 1.1824
C -3.3153 -2.4787 1.7990
C -0.0590 0.9615 0.3835
N 0.2565 1.5879 1.5498
C 0.6205 2.8959 1.5946
C 0.7026 3.6483 0.4134
C 1.0659 5.1107 0.4520
F 1.7200 5.4791 -0.7109
F -0.0866 5.8633 0.5784
F 1.9007 5.3801 1.5225
C 0.3410 3.0341 -0.7947
C -0.0361 1.6890 -0.8195
Cl -0.5192 0.9706 -2.3492
C 2.7168 -0.5069 -1.9296
C 3.9072 0.1878 -2.1631
H 7.5545 2.3788 -0.4111
H 4.8292 0.7379 1.0762
H 2.7374 -0.4765 1.4744
H -0.8326 -1.4204 2.2122
H -1.9401 -0.0746 1.7998
H -1.7895 -2.7693 0.2979
H -2.4783 -0.9049 -1.2075
H -3.6969 -0.3443 -0.0102
H -3.6507 -3.0465 -1.5151
H -4.7836 -1.6764 -1.7831
H -5.8120 -3.5101 -0.4035
H -5.7429 -1.9463 0.4826
H -5.0351 -3.7922 1.9708
H -3.8032 -4.3398 0.7806
H -2.7303 -3.0212 2.5735
H -3.8590 -1.6469 2.3004
H 0.8494 3.3438 2.5525
H 0.3458 3.6006 -1.7176
H 2.1260 -0.8396 -2.7731
H 4.2130 0.3700 -3.1858
*
