! B3LYP 6-31G* SP

* xyz 0 1
C -0.2514 -1.3865 -1.9116
C 0.7543 -1.7138 -0.8297
C 1.3984 -0.6823 -0.1056
N 1.1237 0.6978 -0.3731
C 0.3520 1.4835 0.5899
C -1.0799 1.0256 0.5924
C -1.9903 1.5527 -0.3342
C -3.3046 1.0799 -0.3803
C -3.7279 0.0626 0.4941
C -5.1239 -0.4399 0.4453
C -6.2000 0.4549 0.2896
C -7.5145 -0.0196 0.2456
C -7.7695 -1.3891 0.3541
C -6.7102 -2.2871 0.5076
C -5.3935 -1.8177 0.5545
C -2.8068 -0.4735 1.4112
C -1.4936 0.0018 1.4565
S 1.9497 1.4946 -1.6744
O 0.9501 2.2302 -2.5230
O 2.6541 0.4836 -2.5359
C 3.1345 2.6088 -1.0038
C 2.9083 3.9909 -1.0287
C 3.8416 4.8669 -0.4668
C 5.0135 4.3710 0.1333
C 6.0038 5.2939 0.7304
O 5.8078 6.5397 0.7131
O 7.1654 4.7951 1.3146
C 5.2299 2.9818 0.1606
C 4.2945 2.1082 -0.4015
N 2.2725 -0.9883 0.8882
C 2.5747 -2.2654 1.2236
C 1.9754 -3.3298 0.5458
C 2.2812 -4.6537 0.8964
C 1.6748 -5.7153 0.2245
C 0.7623 -5.4649 -0.8003
C 0.4494 -4.1518 -1.1608
C 1.0506 -3.0607 -0.4946
H 0.0839 -1.8188 -2.8782
H -1.2428 -1.8072 -1.6386
H -0.3865 -0.2978 -2.0653
H 0.7976 1.3756 1.6032
H 0.3973 2.5650 0.3340
H -1.6787 2.3222 -1.0296
H -3.9839 1.4936 -1.1158
H -6.0257 1.5216 0.2200
H -8.3364 0.6757 0.1306
H -8.7878 -1.7542 0.3189
H -6.9091 -3.3484 0.5871
H -4.5862 -2.5323 0.6580
H -3.1052 -1.2521 2.1021
H -0.7968 -0.4340 2.1608
H 2.0086 4.3931 -1.4769
H 3.6432 5.9311 -0.4995
H 7.8501 5.4195 1.7242
H 6.1195 2.5686 0.6192
H 4.4723 1.0403 -0.3632
H 3.2808 -2.4463 2.0250
H 2.9869 -4.8666 1.6907
H 1.9119 -6.7348 0.4997
H 0.2944 -6.2923 -1.3178
H -0.2639 -4.0055 -1.9606
*
