! B3LYP 6-31G* SP

* xyz -1 1
C -4.1122 -1.0371 -0.7251
C -3.0010 -1.8931 -0.1584
C -1.8111 -1.2979 0.3221
N -1.5833 0.1119 0.2065
C -1.2148 0.6869 -1.0899
C 0.2450 0.4542 -1.3674
C 0.6732 -0.7663 -1.9106
C 2.0334 -1.0048 -2.1222
C 2.9874 -0.0368 -1.7868
O 4.3407 -0.3359 -2.0126
C 5.4477 0.4658 -1.6003
C 5.6481 0.3715 -0.0781
C 6.9540 0.9994 0.4039
C 7.4351 -0.3667 0.8755
C 6.1354 -0.9975 0.3940
C 2.5575 1.1902 -1.2443
C 1.1965 1.4295 -1.0339
S -1.4002 1.0514 1.6547
O -2.0114 0.3200 2.8179
O 0.0605 1.2659 1.9380
C -2.2290 2.5918 1.4622
C -1.5049 3.7691 1.2349
C -2.1746 4.9832 1.0549
C -3.5807 5.0348 1.0962
C -4.2952 6.3159 0.9041
O -3.6552 7.3808 0.6916
O -5.6851 6.3620 0.9540
C -4.3005 3.8478 1.3196
C -3.6278 2.6357 1.4988
N -0.8488 -2.0653 0.8976
C -0.9618 -3.4102 1.0117
C -2.0914 -4.0642 0.5145
C -2.1993 -5.4605 0.6079
C -3.3248 -6.1125 0.1043
C -4.3465 -5.3791 -0.4983
C -4.2534 -3.9882 -0.5964
C -3.1271 -3.3052 -0.0861
H -3.9603 0.0440 -0.5309
H -4.1797 -1.1924 -1.8223
H -5.0788 -1.3048 -0.2496
H -1.4417 1.7744 -1.1031
H -1.8263 0.2314 -1.8985
H -0.0462 -1.5358 -2.1636
H 2.3499 -1.9521 -2.5402
H 6.3559 0.0959 -2.1238
H 5.3015 1.5219 -1.9111
H 4.7728 0.7308 0.5066
H 6.7962 1.7060 1.2484
H 7.5904 1.4141 -0.4096
H 7.5531 -0.4205 1.9800
H 8.3201 -0.7267 0.3057
H 6.2998 -1.7321 -0.4258
H 5.5234 -1.3974 1.2324
H 3.2616 1.9658 -0.9792
H 0.8853 2.3745 -0.6063
H -0.4233 3.7497 1.1910
H -1.5922 5.8800 0.8814
H -5.3833 3.8538 1.3530
H -4.1979 1.7300 1.6621
H -0.1597 -3.9677 1.4789
H -1.4124 -6.0464 1.0674
H -3.4037 -7.1895 0.1781
H -5.2149 -5.8906 -0.8936
H -5.0640 -3.4628 -1.0816
*
