! B3LYP 6-31G* SP

* xyz 0 1
C 6.2043 -0.5983 0.4968
C 4.8356 -0.7100 -0.1063
C 4.6603 -0.5792 -1.4920
C 3.3802 -0.6462 -2.0502
C 2.2559 -0.8195 -1.2277
C 0.9061 -0.8924 -1.8242
O 0.7571 -1.5396 -2.8973
N -0.2356 -0.2343 -1.2209
C -1.5395 -0.9493 -1.2854
C -2.5120 -0.2809 -2.2682
C -2.0976 -1.2378 0.1010
C -1.3418 -2.0453 0.9706
C -1.7999 -2.3305 2.2592
C -3.0267 -1.8273 2.6935
C -3.8039 -1.0459 1.8352
Cl -5.3438 -0.4105 2.3841
C -3.3493 -0.7578 0.5434
C -0.0726 1.1771 -0.7610
C -0.2601 2.1959 -1.8758
N -0.2182 1.8361 -3.2591
O -0.3508 3.4181 -1.5782
C -0.8862 1.4987 0.4917
C -2.1316 2.1631 0.4360
C -2.8477 2.4329 1.6062
C -2.3386 2.0434 2.8455
C -1.1064 1.3933 2.9189
C -0.3820 1.1285 1.7535
C 2.4336 -0.9519 0.1572
C 3.7128 -0.8852 0.7160
H 6.2730 -1.2018 1.4270
H 6.9760 -0.9697 -0.2107
H 6.4156 0.4643 0.7381
H 5.5141 -0.4256 -2.1404
H 3.2652 -0.5443 -3.1224
H -1.3758 -1.9625 -1.7181
H -2.0683 -0.2644 -3.2846
H -2.7508 0.7555 -1.9694
H -3.4545 -0.8655 -2.3317
H -0.3942 -2.4563 0.6479
H -1.2026 -2.9438 2.9213
H -3.3739 -2.0480 3.6947
H -3.9695 -0.1416 -0.0920
H 0.9859 1.3268 -0.4603
H -0.3575 2.5701 -3.9885
H -0.0053 0.8699 -3.5809
H -2.5573 2.4784 -0.5055
H -3.8033 2.9378 1.5504
H -2.8988 2.2460 3.7490
H -0.7099 1.0951 3.8808
H 0.5763 0.6389 1.8405
H 1.5863 -1.1259 0.8032
H 3.8279 -0.9782 1.7889
*
