! B3LYP 6-31G* SP

* xyz 0 1
O 2.2054 -0.2811 1.7898
C 1.7088 -0.4187 0.6378
N 2.1640 0.4247 -0.4376
C 3.1613 1.4464 -0.2753
C 4.3406 1.2027 0.4519
C 5.3106 2.2018 0.5779
C 5.1187 3.4453 -0.0292
C 3.9598 3.6893 -0.7704
C 2.9867 2.6930 -0.9009
F 1.8649 2.9478 -1.6207
N 0.6632 -1.3982 0.4296
C 0.5282 -2.4893 1.4061
C 0.0963 -3.7725 0.7118
C -1.1601 -3.5450 -0.0731
C -2.0634 -4.6041 -0.2595
C -3.2002 -4.4310 -1.0506
C -3.4323 -3.2089 -1.6812
C -2.5316 -2.1544 -1.5173
C -1.3955 -2.3010 -0.6969
C -0.4070 -1.1480 -0.5653
C -1.1309 0.1425 -0.2243
C -1.8280 0.2728 0.9884
C -2.4804 1.4670 1.3061
C -2.4342 2.5606 0.4252
C -3.1766 3.8329 0.7470
F -4.4680 3.7411 0.2625
F -3.2216 4.0401 2.1149
F -2.5528 4.9230 0.1650
C -1.7657 2.4181 -0.8024
C -1.1153 1.2232 -1.1210
H 1.6965 0.3696 -1.3669
H 4.5234 0.2351 0.9004
H 6.2156 2.0089 1.1394
H 5.8711 4.2171 0.0686
H 3.8166 4.6516 -1.2450
H -0.2152 -2.2075 2.1820
H 1.4975 -2.6881 1.9139
H -0.0593 -4.5605 1.4809
H 0.8981 -4.1100 0.0200
H -1.8830 -5.5672 0.2019
H -3.8944 -5.2501 -1.1870
H -4.3064 -3.0810 -2.3066
H -2.7198 -1.2213 -2.0333
H 0.0639 -1.0704 -1.5677
H -1.8758 -0.5538 1.6845
H -3.0232 1.5345 2.2406
H -1.7477 3.2308 -1.5177
H -0.6028 1.1421 -2.0712
*
