! B3LYP def2-TZVP SP

* xyz 0 1
O 3.6531 -6.4640 0.5927
C 4.0979 -5.3786 0.1299
O 5.2624 -5.3897 -0.6341
C 3.3921 -4.1056 0.3949
C 3.8839 -2.8983 -0.1313
C 3.2187 -1.6944 0.1172
C 2.0540 -1.6781 0.8932
S 1.2216 -0.1526 1.1807
O 0.0360 -0.3642 2.0806
O 2.1863 0.7823 1.8558
N 0.6809 0.5374 -0.3258
C 0.1310 -0.3450 -1.3601
C -1.2845 -0.7173 -1.0158
C -1.5783 -1.9756 -0.4697
C -2.8880 -2.2990 -0.1039
C -3.9259 -1.3628 -0.2775
O -5.2582 -1.6318 0.0755
C -5.7266 -2.8461 0.6577
F -7.0871 -2.7438 0.8747
F -5.4897 -3.9076 -0.1969
F -5.0975 -3.0672 1.8695
C -3.6269 -0.1080 -0.8214
C -2.3173 0.2163 -1.1849
C 0.6118 1.9660 -0.4941
C 0.2187 2.8002 0.5608
C 0.1429 4.1901 0.3680
C -0.2469 5.0593 1.4134
Cl -0.6577 4.4745 3.0250
C -0.3135 6.4371 1.1851
C 0.0018 6.9629 -0.0664
C 0.3877 6.1189 -1.1077
C 0.4618 4.7281 -0.9068
C 0.8400 3.8480 -1.9417
Br 1.2874 4.4488 -3.7073
N 0.8994 2.5128 -1.7044
C 1.5587 -2.8768 1.4222
C 2.2214 -4.0825 1.1745
H 5.7534 -6.2556 -0.8214
H 4.7815 -2.8828 -0.7365
H 3.6080 -0.7740 -0.3000
H 0.1482 0.1505 -2.3547
H 0.7633 -1.2518 -1.4633
H -0.7936 -2.7068 -0.3235
H -3.0782 -3.2770 0.3144
H -4.4143 0.6224 -0.9575
H -2.1071 1.1974 -1.5928
H -0.0455 2.3598 1.5115
H -0.6114 7.1064 1.9825
H -0.0532 8.0314 -0.2308
H 0.6228 6.5654 -2.0639
H 0.6579 -2.8834 2.0217
H 1.8168 -4.9956 1.5930
*
