! B3LYP 6-31G* SP

* xyz 0 1
C 7.0109 0.4638 1.5839
O 5.5987 0.3990 1.6323
C 4.9806 0.5221 0.3552
C 5.4274 -0.5734 -0.6598
F 6.7218 -0.3532 -1.1003
F 5.3701 -1.8216 -0.0663
F 4.5977 -0.5723 -1.7689
C 5.1174 1.9642 -0.2259
C 3.7158 2.4261 -0.6620
C 2.8145 1.4599 -0.0001
C 1.4228 1.5403 0.0788
C 0.7205 0.5378 0.7755
C -0.7778 0.5926 0.8754
N -1.3899 -0.0823 -0.2719
C -1.2893 -1.5053 -0.4069
N -0.4017 -2.0111 -1.3036
C -0.2122 -3.3426 -1.4674
C -0.9263 -4.2548 -0.6847
C -0.7103 -5.6341 -0.8297
C -1.4103 -6.5415 -0.0339
C -2.3270 -6.0815 0.9109
C -2.5585 -4.7113 1.0614
C -1.8674 -3.7741 0.2610
C -2.0815 -2.3757 0.3776
C -3.1356 -1.8216 1.3108
S -2.0713 0.8424 -1.5713
O -0.9689 1.4515 -2.3893
O -2.8887 -0.0534 -2.4580
C -3.1195 2.0961 -0.9171
C -2.6442 3.4037 -0.7537
C -3.4619 4.3842 -0.1840
C -4.7681 4.0705 0.2306
C -5.6311 5.1107 0.8343
O -6.8179 4.8420 1.1681
O -5.1439 6.3998 1.0313
C -5.2390 2.7554 0.0634
C -4.4169 1.7755 -0.5026
C 1.4285 -0.5407 1.3454
C 2.8240 -0.6047 1.2429
C 3.5028 0.4136 0.5641
H 7.3976 1.1802 0.8248
H 7.3780 0.8134 2.5738
H 7.4324 -0.5492 1.4005
H 5.4792 2.6580 0.5665
H 5.8332 2.0195 -1.0726
H 3.6022 2.3511 -1.7660
H 3.5069 3.4633 -0.3177
H 0.8989 2.3692 -0.3810
H -1.1175 0.1182 1.8206
H -1.1048 1.6526 0.9250
H 0.5107 -3.6860 -2.1982
H 0.0025 -6.0093 -1.5545
H -1.2377 -7.6041 -0.1458
H -2.8603 -6.7909 1.5295
H -3.2697 -4.3992 1.8138
H -4.1004 -2.3482 1.1548
H -3.3412 -0.7474 1.1308
H -2.8067 -1.9477 2.3628
H -1.6355 3.6616 -1.0518
H -3.0699 5.3865 -0.0654
H -5.7285 7.1202 1.4407
H -6.2402 2.4838 0.3776
H -4.7884 0.7648 -0.6105
H 0.9005 -1.3278 1.8696
H 3.3644 -1.4283 1.6902
*
