! B3LYP 6-31G* SP

* xyz 0 1
C 10.9256 3.3701 -2.5329
C 10.0406 3.8542 -1.3857
C 10.0091 2.8828 -0.1884
C 9.5248 1.4616 -0.5214
C 8.0895 1.4307 -1.0674
C 7.6204 0.0173 -1.2751
C 7.2700 -0.7689 -0.2432
C 6.7457 -2.1634 -0.4561
C 5.4620 -2.1401 -1.2497
C 4.2696 -1.7698 -0.7479
C 4.0390 -1.4622 0.7125
C 2.7521 -0.7111 0.9219
C 1.5537 -1.2710 0.6905
C 0.2897 -0.4930 0.9423
C -0.9195 -1.1891 0.3718
C -2.1541 -0.7818 0.6984
C -3.3802 -1.4516 0.1398
C -3.5638 -2.8519 0.7458
C -4.8119 -3.5619 0.2049
C -6.0719 -2.8801 0.6519
O -6.4001 -2.9256 1.8686
N -6.8904 -2.1756 -0.2949
C -8.0439 -1.3753 0.1083
C -7.5819 -0.0537 0.7317
C -8.7632 0.8209 1.0586
C -9.3198 0.8105 2.3466
C -10.4379 1.5959 2.6379
C -11.0194 2.3919 1.6414
O -12.1333 3.1788 1.9275
C -10.4796 2.3968 0.3490
O -11.0631 3.1877 -0.6393
C -9.3577 1.6072 0.0579
H 10.4702 2.4901 -3.0256
H 11.0158 4.1745 -3.2905
H 11.9390 3.1132 -2.1626
H 9.0131 4.0442 -1.7601
H 10.4397 4.8278 -1.0299
H 9.3503 3.3135 0.5980
H 11.0312 2.8190 0.2452
H 9.5694 0.8667 0.4151
H 10.2154 0.9820 -1.2478
H 7.3952 1.9603 -0.3791
H 8.0536 1.9454 -2.0496
H 7.5655 -0.3645 -2.2876
H 7.3499 -0.3972 0.7758
H 7.5084 -2.7522 -1.0090
H 6.5844 -2.6640 0.5234
H 5.5193 -2.4010 -2.3008
H 3.4211 -1.7557 -1.4253
H 4.8632 -0.8302 1.1040
H 4.0238 -2.4115 1.2928
H 2.8058 0.3091 1.2960
H 1.5006 -2.2925 0.3273
H 0.3661 0.5129 0.4738
H 0.1658 -0.3723 2.0392
H -0.7949 -2.0137 -0.3336
H -2.2833 0.0532 1.3905
H -3.2987 -1.5152 -0.9679
H -4.2623 -0.8194 0.3858
H -3.6251 -2.7732 1.8557
H -2.6766 -3.4781 0.5015
H -4.7684 -3.6084 -0.9065
H -4.8238 -4.6086 0.5793
H -6.6745 -2.2540 -1.3154
H -8.6675 -1.1613 -0.7882
H -8.6688 -1.9495 0.8290
H -6.9927 -0.2605 1.6527
H -6.9077 0.4788 0.0239
H -8.8851 0.1996 3.1282
H -10.8535 1.5845 3.6380
H -12.5252 3.2210 2.8612
H -10.7046 3.2072 -1.5853
H -8.9544 1.5998 -0.9476
*
