! B3LYP 6-31G* SP

* xyz 0 1
C -0.5316 1.6573 2.7765
C -1.0041 0.7030 1.7011
C -0.2345 0.5016 0.5359
N 1.0340 1.1443 0.3597
C 1.1976 2.1367 -0.7039
C 0.3357 3.3382 -0.4270
C -0.9399 3.4465 -1.0096
C -1.7622 4.5363 -0.7054
C -1.3219 5.5180 0.1868
C -0.0602 5.4088 0.7831
C 0.7654 4.3204 0.4819
S 2.4360 0.4038 1.0654
O 2.0808 -0.2199 2.3872
O 3.4935 1.4452 1.3056
C 3.0286 -0.8413 -0.0271
C 2.3294 -2.0483 -0.1458
C 2.7657 -3.0308 -1.0376
C 3.9129 -2.8210 -1.8223
C 4.3732 -3.8633 -2.7661
O 5.4428 -3.7083 -3.4164
O 3.6244 -5.0224 -2.9519
C 4.6127 -1.6071 -1.6966
C 4.1694 -0.6219 -0.8096
N -0.6860 -0.3176 -0.4455
C -1.8544 -1.0018 -0.3628
C -2.2623 -1.8683 -1.5283
C -1.1448 -2.6526 -2.2067
C -2.1094 -3.3618 -1.2755
C -2.6696 -0.8492 0.7807
C -3.9034 -1.5227 0.9030
C -4.6875 -1.3650 2.0443
C -4.2597 -0.5367 3.0780
C -3.0471 0.1444 2.9773
C -2.2343 0.0072 1.8294
H -0.3525 1.0971 3.7195
H -1.2988 2.4421 2.9478
H 0.4100 2.1789 2.5110
H 0.9275 1.6799 -1.6815
H 2.2597 2.4538 -0.7848
H -1.3009 2.6832 -1.6885
H -2.7476 4.6117 -1.1507
H -1.9613 6.3597 0.4237
H 0.2727 6.1638 1.4863
H 1.7327 4.2357 0.9649
H 1.4406 -2.2257 0.4472
H 2.2063 -3.9556 -1.1090
H 3.9274 -5.7398 -3.6003
H 5.4975 -1.4138 -2.2898
H 4.7164 0.3088 -0.7370
H -3.1222 -1.5766 -2.1685
H -1.3234 -2.8651 -3.2833
H -0.1248 -2.5376 -1.7839
H -2.8552 -3.9971 -1.7991
H -1.6589 -3.6502 -0.3008
H -4.2731 -2.1720 0.1211
H -5.6312 -1.8873 2.1283
H -4.8727 -0.4200 3.9618
H -2.7577 0.7746 3.8078
*
