! B3LYP 6-31G* SP

* xyz 0 1
C -5.8224 0.1546 -0.4964
C -5.1977 -0.8432 0.4699
N -3.8503 -0.4193 0.8280
N -3.5641 0.3801 1.8413
N -2.2612 0.6109 1.8487
C -1.7811 -0.0761 0.7918
C -0.3649 -0.1052 0.4039
S 0.8767 0.6967 1.2055
C 2.0733 0.1447 0.1494
C 3.5163 0.4641 0.2354
C 4.4181 -0.0580 -0.7069
C 5.7778 0.2461 -0.6215
C 6.2305 1.0722 0.4072
N 5.3511 1.5725 1.3140
C 4.0217 1.2920 1.2537
N 1.5406 -0.6463 -0.8116
C 0.1946 -0.7862 -0.6737
O -0.5549 -1.5583 -1.5554
N -2.7651 -0.7219 0.1365
H -5.2135 0.2209 -1.4231
H -6.8481 -0.1760 -0.7636
H -5.8799 1.1584 -0.0242
H -5.1596 -1.8469 -0.0059
H -5.8234 -0.9150 1.3857
H 4.0741 -0.6999 -1.5082
H 6.4743 -0.1550 -1.3463
H 7.2815 1.3160 0.4853
H 3.3664 1.7172 2.0017
H -0.1108 -2.0390 -2.3283
*
