! B3LYP 6-31G* SP

* xyz 0 1
Cl 7.1247 -0.8900 -1.4001
C 5.5485 -0.5339 -0.7178
C 5.3158 0.6985 -0.0983
C 4.0589 0.9849 0.4439
C 3.0285 0.0327 0.3813
C 1.6645 0.3495 0.9197
O 0.8636 0.8383 -0.1374
C -0.5034 0.8568 0.2339
C -1.2384 1.8948 -0.6294
N -2.6472 1.9910 -0.2494
C -3.6851 1.3676 -0.8301
C -4.8171 1.6750 -0.1097
N -4.4920 2.4803 0.9234
C -3.1581 2.6490 0.8085
C -1.1302 -0.5225 0.0710
C -1.9690 -1.0043 1.0936
C -2.5895 -2.2496 0.9809
C -2.3857 -3.0331 -0.1555
Cl -3.1679 -4.5970 -0.2950
C -1.5619 -2.5692 -1.1834
C -0.9352 -1.3208 -1.0843
Cl 0.0757 -0.8093 -2.4332
C 3.2634 -1.1960 -0.2570
C 4.5207 -1.4793 -0.7989
H 6.1058 1.4364 -0.0404
H 3.8896 1.9475 0.9104
H 1.2387 -0.5764 1.3718
H 1.7428 1.1179 1.7213
H -0.6131 1.2060 1.2900
H -0.7562 2.8875 -0.4931
H -1.1568 1.6376 -1.7070
H -3.6215 0.7248 -1.6987
H -5.8192 1.3253 -0.3178
H -2.5671 3.2370 1.4989
H -2.1504 -0.4108 1.9812
H -3.2315 -2.6031 1.7777
H -1.4108 -3.1800 -2.0648
H 2.4724 -1.9320 -0.3365
H 4.6934 -2.4312 -1.2847
*
