! B3LYP 6-31G* SP

* xyz 0 1
C -2.5213 2.4728 -2.2132
N -2.9495 1.4883 -1.1995
C -2.2998 1.4299 0.0025
O -1.3514 2.2308 0.2187
C -2.6824 0.4857 0.9863
C -2.0594 0.3865 2.2792
C -0.8979 1.2480 2.7472
C 0.3948 0.8184 2.1128
O 1.1155 1.6793 1.5393
N 0.8274 -0.5481 2.2075
C 1.9528 -1.0755 1.4946
N 2.6941 -0.3666 0.6171
C 3.6925 -1.1125 0.0654
C 4.6358 -0.5279 -0.9250
C 5.5205 -1.3343 -1.6692
C 6.3951 -0.7601 -2.5962
C 6.4000 0.6214 -2.7976
F 7.2534 1.1655 -3.7009
C 5.5245 1.4350 -2.0712
Cl 5.5190 3.1731 -2.3189
C 4.6472 0.8640 -1.1422
C 3.7378 -2.4364 0.5191
S 2.4922 -2.6577 1.6285
C -2.5119 -0.5860 3.1852
C -3.5493 -1.4418 2.8579
C -4.1600 -1.3581 1.6164
C -3.7455 -0.4048 0.6556
N -4.3481 -0.3406 -0.5840
C -5.4376 -1.2772 -0.9394
C -3.9378 0.5929 -1.5021
O -4.4745 0.6289 -2.6465
H -1.7031 2.0424 -2.8281
H -2.1668 3.4136 -1.7402
H -3.3614 2.7669 -2.8779
H -0.7674 1.1748 3.8487
H -1.1070 2.3228 2.5673
H 0.2880 -1.2034 2.8160
H 5.5358 -2.4084 -1.5535
H 7.0688 -1.3904 -3.1625
H 3.9800 1.5126 -0.5880
H 4.4478 -3.1997 0.2354
H -2.0530 -0.6903 4.1611
H -3.8816 -2.1830 3.5739
H -4.9603 -2.0579 1.4256
H -6.2935 -1.1432 -0.2440
H -5.0678 -2.3237 -0.8913
H -5.8346 -1.1261 -1.9640
*
