! B3LYP 6-31G* SP

* xyz 0 1
C -6.8236 -1.0997 0.7433
C -6.3379 0.3403 0.6445
N -5.0387 0.3881 -0.0135
N -4.8669 0.4946 -1.3194
N -3.5713 0.4478 -1.5833
C -2.9730 0.2992 -0.3826
C -1.5134 0.1941 -0.2075
S -0.4176 0.2512 -1.4835
C 0.9389 0.0736 -0.5007
C 2.3463 0.0329 -0.9626
C 2.6603 0.1462 -2.3282
C 3.9893 0.1067 -2.7533
C 5.0199 -0.0459 -1.8250
C 4.7345 -0.1613 -0.4568
N 5.8200 -0.3177 0.4764
C 5.6344 -0.4462 1.9181
C 3.3914 -0.1208 -0.0324
N 0.5755 -0.0302 0.7979
C -0.7721 0.0347 0.9729
O -1.3174 -0.0561 2.2526
N -3.8815 0.2528 0.6103
H -7.8135 -1.1267 1.2454
H -6.9235 -1.5393 -0.2719
H -6.1043 -1.7053 1.3347
H -7.0728 0.9414 0.0665
H -6.2566 0.7756 1.6640
H 1.8828 0.2655 -3.0713
H 4.2214 0.1948 -3.8068
H 6.0448 -0.0744 -2.1734
H 6.7996 -0.3419 0.1119
H 5.1339 0.4608 2.3175
H 6.6208 -0.5545 2.4167
H 5.0241 -1.3462 2.1423
H 3.1548 -0.2084 1.0192
H -2.3085 -0.0132 2.4378
*
