! B3LYP 6-31G* SP

* xyz 0 1
O 2.1841 1.9274 1.8459
C 1.7213 0.9427 1.2085
C 0.2753 0.9075 0.8985
S -0.5960 -0.4244 0.3466
C -2.0729 0.3890 0.3192
C -3.3732 -0.1887 -0.0916
C -3.4694 -1.5280 -0.5149
C -4.7031 -2.0614 -0.9005
C -5.8516 -1.2676 -0.8687
C -5.7692 0.0626 -0.4509
F -6.8848 0.8326 -0.4204
C -4.5377 0.6013 -0.0640
N -1.9213 1.6682 0.7329
C -0.6313 1.9565 1.0559
O -0.2591 3.2187 1.5075
N 2.6054 -0.1191 0.7960
C 3.9875 -0.2010 1.2748
C 4.9115 0.1630 0.1115
C 4.4790 -0.5774 -1.1639
C 2.9590 -0.4549 -1.3760
O 2.2649 -0.9340 -0.2423
H -2.5959 -2.1657 -0.5496
H -4.7685 -3.0921 -1.2246
H -6.8047 -1.6843 -1.1680
H -4.4968 1.6348 0.2564
H -0.9462 3.9560 1.6078
H 4.1699 0.4726 2.1393
H 4.1963 -1.2426 1.6015
H 5.9617 -0.0973 0.3645
H 4.8564 1.2593 -0.0667
H 4.7485 -1.6525 -1.0743
H 5.0153 -0.1557 -2.0409
H 2.6780 0.6010 -1.5936
H 2.6678 -1.0662 -2.2558
*
