! B3LYP 6-31G* SP

* xyz 0 1
C -1.3204 -0.9407 0.9927
C -1.8410 -1.8930 -0.0605
C -2.0560 -1.4541 -1.3890
N -1.8149 -0.0953 -1.7741
C -0.6425 0.2277 -2.5893
C 0.6033 0.1481 -1.7507
C 1.0566 1.2740 -1.0472
C 2.1596 1.1773 -0.1954
C 2.8279 -0.0482 -0.0317
C 3.9854 -0.1530 0.8890
C 3.9091 0.4029 2.1794
C 4.9911 0.3028 3.0587
C 6.1599 -0.3488 2.6598
C 6.2506 -0.8995 1.3793
C 5.1718 -0.8045 0.4936
F 5.3011 -1.3169 -0.7569
C 2.3672 -1.1762 -0.7321
C 1.2634 -1.0787 -1.5831
S -3.0708 1.0824 -1.5451
O -4.1073 0.5456 -0.5970
O -3.7344 1.3692 -2.8629
C -2.3919 2.5626 -0.8741
C -2.2501 2.7082 0.5113
C -1.6718 3.8640 1.0434
C -1.2296 4.8950 0.1951
C -0.6114 6.1181 0.7521
O -0.4752 6.2542 1.9983
O -0.1731 7.1318 -0.0962
C -1.3824 4.7464 -1.1943
C -1.9600 3.5888 -1.7237
N -2.4856 -2.3289 -2.3355
C -2.7374 -3.6315 -2.0620
C -2.5615 -4.1237 -0.7666
C -2.8276 -5.4715 -0.4796
C -2.6527 -5.9609 0.8151
C -2.2134 -5.1118 1.8305
C -1.9438 -3.7678 1.5588
C -2.1107 -3.2503 0.2548
H -1.0730 0.0574 0.5861
H -2.0845 -0.8063 1.7866
H -0.3865 -1.3452 1.4367
H -0.5759 -0.4766 -3.4472
H -0.7389 1.2458 -3.0234
H 0.5517 2.2253 -1.1494
H 2.4946 2.0616 0.3325
H 3.0064 0.9006 2.5121
H 4.9219 0.7285 4.0515
H 6.9969 -0.4245 3.3418
H 7.1616 -1.3962 1.0706
H 2.8446 -2.1392 -0.5999
H 0.9093 -1.9651 -2.0951
H -2.5822 1.9262 1.1817
H -1.5693 3.9486 2.1180
H 0.2522 7.9731 0.2745
H -1.0515 5.5216 -1.8738
H -2.0581 3.4892 -2.7971
H -3.0784 -4.2802 -2.8593
H -3.1709 -6.1451 -1.2560
H -2.8595 -7.0010 1.0323
H -2.0816 -5.4962 2.8339
H -1.6101 -3.1458 2.3780
*
