! B3LYP 6-31G* SP

* xyz 0 1
O 7.1923 -1.4097 -1.8315
C 6.3614 -2.2746 -1.4405
O 6.5591 -3.6119 -1.7774
C 5.1885 -1.8738 -0.6320
C 4.2860 -2.8423 -0.1609
C 3.1765 -2.4658 0.6022
C 2.9554 -1.1174 0.9072
S 1.5481 -0.6257 1.8408
O 0.8824 -1.8185 2.4691
O 1.9869 0.3073 2.9355
N 0.4225 0.1698 0.7857
C -0.1897 -0.5780 -0.3133
C -1.7098 -0.6236 -0.1381
C -2.3710 -1.4336 -1.2567
C -3.8656 -1.4510 -1.0820
C -4.6564 -0.4361 -1.6470
C -6.0416 -0.4356 -1.4589
C -6.6449 -1.4396 -0.6966
C -5.8633 -2.4423 -0.1165
C -4.4776 -2.4462 -0.3021
C 0.2944 1.5953 0.8380
N 0.8291 2.3515 -0.1585
C 0.7381 3.7067 -0.1640
C 0.0851 4.3768 0.8824
C -0.0726 5.8755 0.8584
F 0.9947 6.4695 0.2080
F -1.2411 6.1984 0.1960
F -0.1295 6.3801 2.1460
C -0.5069 3.6113 1.8987
C -0.3992 2.2184 1.8869
Cl -1.1835 1.2805 3.1514
C 3.8461 -0.1474 0.4358
C 4.9570 -0.5212 -0.3253
H 7.3542 -3.8955 -2.3364
H 4.4356 -3.8916 -0.3816
H 2.4910 -3.2272 0.9501
H 0.2061 -1.6168 -0.3342
H 0.0699 -0.0981 -1.2822
H -1.9474 -1.0861 0.8456
H -2.1124 0.4133 -0.1467
H -1.9786 -2.4744 -1.2498
H -2.1148 -0.9884 -2.2437
H -4.1999 0.3521 -2.2330
H -6.6467 0.3436 -1.9036
H -7.7173 -1.4380 -0.5525
H -6.3311 -3.2148 0.4801
H -3.8825 -3.2236 0.1605
H 1.1731 4.2584 -0.9878
H -1.0603 4.0933 2.6950
H 3.6787 0.8990 0.6552
H 5.6316 0.2482 -0.6754
*
