! B3LYP 6-31G* SP

* xyz 0 1
C -3.0745 0.7976 -2.5045
N -3.7627 0.3816 -1.2696
C -3.2351 -0.6357 -0.5072
O -2.1624 -1.2014 -0.8526
C -3.9078 -1.0455 0.6492
C -3.5610 -2.0616 1.5887
C -2.3097 -2.8932 1.5361
C -1.1166 -2.0831 1.9519
O -1.1162 -1.5242 3.0822
N 0.0269 -1.9887 1.0880
C 1.0810 -1.0270 1.2367
N 2.1910 -1.0456 0.4691
C 3.0322 -0.0121 0.7537
C 4.3279 0.1439 0.0505
C 5.0028 -1.0013 -0.3988
C 6.2161 -0.8889 -1.0749
C 6.7818 0.3650 -1.3071
F 7.9471 0.4320 -1.9999
C 6.1391 1.5330 -0.8481
C 6.7242 2.8983 -1.1454
F 6.3808 3.8097 -0.1622
F 6.2416 3.3445 -2.3616
F 8.1061 2.8471 -1.2011
C 4.8880 1.4146 -0.2024
F 4.1907 2.5345 0.1207
C 2.5855 0.8385 1.7685
S 1.0922 0.2781 2.3003
N -4.4415 -2.2215 2.6175
S -5.6586 -1.1143 2.3644
C -5.0877 -0.4121 0.9655
N -5.6285 0.5865 0.2179
C -6.9211 1.1811 0.5875
C -4.9696 0.9608 -0.9287
O -5.4777 1.8401 -1.6809
H -3.2630 1.8688 -2.7310
H -3.4277 0.1767 -3.3546
H -1.9728 0.6912 -2.4076
H -2.4072 -3.7572 2.2279
H -2.1777 -3.3124 0.5169
H 0.0907 -2.6458 0.2783
H 4.5910 -1.9880 -0.2248
H 6.7191 -1.7810 -1.4257
H 3.1109 1.6916 2.1749
H -7.0289 1.2409 1.6912
H -7.7462 0.5653 0.1719
H -7.0128 2.2194 0.2037
*
