! B3LYP 6-31G* SP

* xyz 0 1
O -0.5274 -0.2247 2.6802
C -0.6611 0.2334 1.5130
N -1.8525 0.9462 1.1770
C -2.2025 1.2292 -0.2102
C -2.9214 0.0254 -0.8429
C -4.2110 -0.2837 -0.1274
C -4.2460 -1.2572 0.8855
C -5.4370 -1.5186 1.5698
C -6.5975 -0.8070 1.2534
C -6.5681 0.1700 0.2544
C -5.3790 0.4350 -0.4321
C -0.9625 1.5529 -0.9899
O -1.0424 2.3683 -1.9495
N 0.2899 0.8994 -0.6908
C 1.3308 0.9199 -1.7430
C 2.6433 0.4101 -1.2406
N 3.7839 0.3325 -1.9634
C 4.7158 -0.1272 -1.1057
C 6.0662 -0.3543 -1.3669
C 6.8728 -0.8124 -0.3083
C 6.3198 -1.0257 0.9747
C 4.9541 -0.7851 1.2124
C 4.1796 -0.3398 0.1427
C 2.8448 -0.0109 0.0547
C 1.8018 0.0550 1.1140
C 0.3999 -0.0299 0.4671
H -2.5524 1.1496 1.9261
H -2.8804 2.1119 -0.2340
H -2.2554 -0.8658 -0.8299
H -3.1428 0.2457 -1.9108
H -3.3516 -1.8090 1.1473
H -5.4595 -2.2707 2.3478
H -7.5183 -1.0098 1.7849
H -7.4661 0.7243 0.0140
H -5.3668 1.2003 -1.1983
H 1.0014 0.2967 -2.6015
H 1.4886 1.9618 -2.0952
H 3.9174 0.5954 -2.9653
H 6.4832 -0.1807 -2.3504
H 7.9253 -0.9989 -0.4774
H 6.9517 -1.3745 1.7811
H 4.5232 -0.9418 2.1928
H 1.9147 1.0172 1.6595
H 1.9449 -0.7857 1.8270
H 0.2485 -1.0666 0.0935
*
