! B3LYP 6-31G* SP

* xyz 0 1
N 6.1708 4.9956 -2.5690
C 5.3573 4.1865 -2.4153
C 4.3451 3.1804 -2.2240
C 3.0052 3.5542 -2.0639
C 2.0222 2.5768 -1.8792
C 2.3696 1.2180 -1.8379
N 1.3377 0.2347 -1.6590
C 1.4543 -0.8853 -0.7611
O 2.5688 -1.1482 -0.2313
N 0.3013 -1.6920 -0.4226
C 0.5305 -3.0291 0.1439
C -0.5525 -3.9936 -0.3167
C -1.9095 -3.4538 0.0224
C -2.9617 -4.3417 0.2999
C -4.2474 -3.8573 0.5461
C -4.4987 -2.4867 0.4929
C -3.4637 -1.5959 0.1995
C -2.1528 -2.0643 -0.0189
C -1.0464 -1.0760 -0.3700
C -1.0385 0.0884 0.6050
C -0.7637 -0.1214 1.9664
C -0.7368 0.9541 2.8581
C -1.0028 2.2591 2.4080
C -0.9310 3.4348 3.3492
F 0.3036 4.0433 3.2234
F -1.1033 3.0341 4.6629
F -1.9200 4.3535 3.0427
C -1.2580 2.4702 1.0433
C -1.2863 1.3946 0.1525
C 3.7129 0.8468 -2.0249
C 4.6959 1.8249 -2.2103
H 2.7205 4.5992 -2.0832
H 0.9892 2.8774 -1.7559
H 0.4179 0.4373 -2.1047
H 0.5387 -2.9684 1.2531
H 1.5116 -3.4355 -0.1867
H -0.3876 -4.9773 0.1752
H -0.4840 -4.1343 -1.4172
H -2.7872 -5.4106 0.3180
H -5.0528 -4.5466 0.7641
H -5.4992 -2.1137 0.6711
H -3.6864 -0.5375 0.1417
H -1.3040 -0.7200 -1.3895
H -0.5683 -1.1185 2.3382
H -0.5064 0.7629 3.8981
H -1.4355 3.4699 0.6656
H -1.4956 1.5841 -0.8923
H 3.9995 -0.1961 -2.0552
H 5.7273 1.5232 -2.3524
*
