! B3LYP 6-31G* SP

* xyz 0 1
O 2.9699 1.5034 -1.0030
C 2.0904 1.3026 -0.1219
N 2.3591 0.3697 0.9324
C 2.6897 -1.0126 0.7034
C 2.9868 -1.8372 1.8007
C 3.2334 -3.2011 1.6176
C 3.1810 -3.7569 0.3372
F 3.4091 -5.0818 0.1627
C 2.8840 -2.9483 -0.7624
C 2.6393 -1.5833 -0.5845
N 0.8217 1.9944 -0.1854
C 0.7340 3.2707 -0.9103
C -0.5868 3.3605 -1.6655
C -1.7349 3.1607 -0.7211
C -2.9572 3.8103 -0.9564
C -4.0324 3.6261 -0.0844
C -3.8989 2.7869 1.0226
C -2.6930 2.1219 1.2558
C -1.6030 2.2928 0.3834
C -0.3186 1.5213 0.6367
C -0.5708 0.0448 0.3914
C -0.6146 -0.8545 1.4694
C -0.7595 -2.2254 1.2424
C -0.8589 -2.7240 -0.0671
C -1.0227 -4.2030 -0.3083
F -2.3652 -4.5277 -0.2546
F -0.3428 -4.9303 0.6534
F -0.5219 -4.5557 -1.5496
C -0.8815 -1.8181 -1.1410
C -0.7331 -0.4473 -0.9144
H 2.1648 0.6804 1.9109
H 3.0138 -1.4242 2.8012
H 3.4570 -3.8281 2.4711
H 2.8316 -3.3806 -1.7533
H 2.3818 -0.9889 -1.4502
H 0.8097 4.1087 -0.1834
H 1.5605 3.3815 -1.6442
H -0.6518 4.3576 -2.1536
H -0.6223 2.5819 -2.4568
H -3.0760 4.4633 -1.8122
H -4.9702 4.1345 -0.2673
H -4.7333 2.6457 1.6974
H -2.6094 1.4646 2.1125
H -0.0475 1.6830 1.7037
H -0.5103 -0.4980 2.4865
H -0.7800 -2.8979 2.0908
H -0.9987 -2.1707 -2.1579
H -0.7221 0.2280 -1.7594
*
