! B3LYP 6-31G* SP

* xyz 0 1
C 4.5122 -0.4495 -1.4857
C 3.5092 -1.2253 -0.6842
C 3.5818 -2.6256 -0.6327
C 2.6731 -3.3482 0.1424
C 1.6860 -2.6811 0.8709
C 1.5926 -1.2801 0.8231
C 0.5181 -0.5725 1.6118
N -0.1220 0.5076 0.8353
C 0.0859 1.8649 1.2887
O 1.2477 2.2445 1.6010
C -1.0308 2.8274 1.3927
C -2.2722 2.4295 1.9168
C -3.3225 3.3476 2.0158
C -3.1380 4.6711 1.6062
C -1.9001 5.0800 1.1036
C -0.8473 4.1643 1.0022
C -1.0796 0.2410 -0.2726
C -0.8300 1.1644 -1.4448
N -1.9194 1.6113 -2.2523
O 0.3453 1.5162 -1.7383
C -1.1045 -1.2152 -0.7231
C -1.9986 -2.1111 -0.1077
C -2.0172 -3.4604 -0.4726
C -1.1447 -3.9333 -1.4544
C -0.2504 -3.0582 -2.0732
C -0.2255 -1.7082 -1.7115
C 2.5300 -0.5555 0.0661
H 4.7540 -0.9876 -2.4268
H 4.1150 0.5520 -1.7554
H 5.4407 -0.3213 -0.8905
H 4.3438 -3.1559 -1.1901
H 2.7329 -4.4289 0.1778
H 0.9860 -3.2588 1.4605
H 0.9842 -0.1704 2.5381
H -0.2637 -1.2851 1.9531
H -2.4236 1.4145 2.2623
H -4.2778 3.0344 2.4160
H -3.9519 5.3808 1.6841
H -1.7564 6.1062 0.7917
H 0.1049 4.4943 0.6061
H -2.0979 0.4806 0.0972
H -1.7464 2.2351 -3.0705
H -2.8979 1.3134 -2.0430
H -2.6753 -1.7662 0.6645
H -2.7069 -4.1409 0.0100
H -1.1587 -4.9792 -1.7327
H 0.4320 -3.4282 -2.8270
H 0.4948 -1.0594 -2.1900
H 2.4889 0.5254 0.0435
*
