! B3LYP 6-31G* SP

* xyz 0 1
C 5.1072 0.4918 -3.3687
O 4.0020 -0.3251 -3.0004
C 2.6756 0.0959 -3.1349
O 2.4063 1.2289 -3.6181
C 1.5652 -0.8103 -2.6962
C 1.6575 -1.1501 -1.1998
C 1.4834 0.0759 -0.2625
N 0.0764 0.5492 -0.1784
C -0.7855 -0.2636 0.7134
C -2.2068 0.2310 0.6462
O -2.4435 1.4632 0.7794
N -3.2872 -0.6953 0.4588
C -4.6809 -0.2642 0.3655
C -4.9132 0.4886 -0.9181
C -4.7818 -0.1673 -2.1541
C -4.9807 0.5331 -3.3487
C -5.3155 1.8898 -3.3170
F -5.5060 2.5676 -4.4750
C -5.4470 2.5495 -2.0919
C -5.2462 1.8536 -0.8955
C -0.2878 -0.2025 2.1746
C 1.1866 -0.4223 2.2032
C 2.0089 -0.2428 1.1096
N 3.3100 -0.4104 1.4423
C 3.3059 -0.6740 2.7640
C 4.4111 -0.8924 3.5865
C 4.1770 -1.1176 4.9564
C 2.8597 -1.1170 5.4689
C 1.7621 -0.8939 4.6172
C 2.0246 -0.6819 3.2653
H 5.0896 1.4391 -2.7903
H 5.0693 0.7138 -4.4559
H 6.0497 -0.0469 -3.1442
H 0.5808 -0.3617 -2.9407
H 1.6414 -1.7537 -3.2777
H 2.6492 -1.6193 -1.0176
H 0.9033 -1.9286 -0.9661
H 2.1009 0.9151 -0.6471
H -0.3455 0.5705 -1.1349
H -0.7700 -1.3239 0.3827
H -3.0831 -1.7201 0.4203
H -4.9390 0.3544 1.2541
H -5.3448 -1.1554 0.3818
H -4.5219 -1.2184 -2.1897
H -4.8765 0.0222 -4.2972
H -5.7055 3.6000 -2.0675
H -5.3503 2.3789 0.0451
H -0.7943 -0.9838 2.7804
H -0.5008 0.7931 2.6208
H 4.1391 -0.3177 0.8139
H 5.4154 -0.8731 3.1878
H 5.0115 -1.2880 5.6234
H 2.6937 -1.2888 6.5248
H 0.7505 -0.8897 5.0017
*
