! B3LYP 6-31G* SP

* xyz 0 1
O 5.9838 2.0404 -0.8427
C 4.9807 1.4170 -1.2843
O 4.7662 1.3595 -2.6596
C 4.0411 0.7537 -0.3534
C 4.2791 0.7623 1.0338
C 3.3875 0.1351 1.9088
C 2.2500 -0.5039 1.4126
C 1.9958 -0.5187 0.0351
S 0.5266 -1.2827 -0.5687
O 0.5412 -2.7263 -0.1503
O 0.4825 -1.2263 -2.0702
N -0.8815 -0.4681 0.0646
C -1.6081 -1.0575 1.1983
C -2.1465 -2.4369 0.8932
C -2.6561 -2.7635 -0.3779
C -3.1827 -4.0351 -0.6232
C -3.2180 -4.9883 0.3977
C -2.7294 -4.6691 1.6667
C -2.2025 -3.3982 1.9167
C -1.0191 0.9410 -0.1990
N 0.0624 1.7520 -0.0465
C 0.0079 3.0927 -0.2545
C -1.1971 3.6985 -0.6406
C -1.3020 5.1832 -0.8805
F -1.6824 5.4134 -2.1906
F -2.2541 5.7209 -0.0327
F -0.0957 5.8237 -0.6519
C -2.3257 2.8861 -0.8119
C -2.2478 1.5071 -0.5948
Cl -3.6881 0.5377 -0.8646
C 2.8928 0.1069 -0.8453
H 5.4081 1.8051 -3.3069
H 5.1544 1.2518 1.4431
H 3.5766 0.1480 2.9754
H 1.5645 -0.9813 2.1024
H -2.4623 -0.4139 1.4975
H -0.9200 -1.0976 2.0707
H -2.6288 -2.0467 -1.1863
H -3.5627 -4.2814 -1.6063
H -3.6263 -5.9719 0.2056
H -2.7596 -5.4069 2.4583
H -1.8358 -3.1653 2.9087
H 0.9080 3.6770 -0.1180
H -3.2670 3.3271 -1.1188
H 2.6901 0.0992 -1.9099
*
