! B3LYP 6-31G* SP

* xyz 0 1
O -3.5461 -5.7225 -0.4522
C -4.0336 -4.5669 -0.3223
O -5.2995 -4.4207 0.2393
C -3.2704 -3.3779 -0.7611
C -3.8132 -2.0901 -0.6096
C -3.0931 -0.9649 -1.0214
C -1.8239 -1.1098 -1.5938
S -0.9045 0.3120 -2.0711
O -1.8442 1.3714 -2.5769
O 0.0561 -0.0335 -3.1747
N -0.0244 0.9047 -0.6993
C 1.1059 0.1406 -0.1691
C 2.4243 0.8616 -0.4781
N 3.6257 0.1115 -0.0551
C 3.9664 -1.0775 -0.8652
C 3.5881 -2.3966 -0.1743
O 4.0725 -2.4309 1.1499
C 3.4229 -1.4320 1.9039
C 3.8145 -0.0361 1.4028
C -0.4310 2.1297 -0.0811
N -0.0921 3.3119 -0.6609
C -0.4516 4.5077 -0.1250
C -1.2128 4.5555 1.0536
C -1.5722 5.8752 1.6875
F -0.5785 6.2380 2.5773
F -1.6986 6.8626 0.7256
F -2.7736 5.7771 2.3678
C -1.5565 3.3455 1.6760
C -1.1783 2.1266 1.1073
Cl -1.6712 0.6256 1.8796
C -1.2743 -2.3891 -1.7428
C -1.9922 -3.5161 -1.3326
H -5.8300 -5.2282 0.5434
H -4.7925 -1.9501 -0.1697
H -3.5229 0.0195 -0.8862
H 1.1156 -0.8646 -0.6316
H 0.9835 0.0185 0.9256
H 2.4816 1.0650 -1.5699
H 2.4232 1.8551 0.0214
H 5.0643 -1.0750 -1.0358
H 3.4846 -1.0373 -1.8668
H 2.4925 -2.5807 -0.2063
H 4.0573 -3.2308 -0.7377
H 3.7462 -1.5279 2.9620
H 2.3201 -1.5752 1.8986
H 3.2405 0.7331 1.9654
H 4.8889 0.1308 1.6323
H -0.1400 5.4187 -0.6189
H -2.1202 3.3468 2.6007
H -0.2880 -2.5158 -2.1712
H -1.5452 -4.4943 -1.4597
*
