! B3LYP 6-31G* SP

* xyz 0 1
N -5.6893 -1.6291 -1.6650
C -4.9960 -0.7368 -0.7353
C -5.1730 -1.2464 0.7086
C -4.4067 -0.3698 1.7087
C -2.9178 -0.2965 1.3490
C -2.7329 0.2177 -0.0914
N -1.3006 0.3288 -0.4467
C -0.6715 1.6627 -0.4941
C 0.5192 1.7315 0.4736
C 0.1878 2.1450 1.8980
C 0.8808 3.1250 0.9629
C -0.5028 -0.8473 -0.7287
O -0.7114 -1.9180 -0.0978
C 0.5738 -0.8202 -1.7417
C 0.3198 -0.2687 -3.0078
C 1.3288 -0.2144 -3.9700
C 2.5971 -0.7169 -3.6807
C 2.8605 -1.2802 -2.4300
C 1.8521 -1.3402 -1.4472
O 2.0806 -1.8989 -0.1765
C 3.3603 -2.1687 0.3963
C 4.0346 -0.8826 0.7879
C 3.4882 -0.0943 1.8146
C 4.0836 1.1218 2.1622
C 5.2302 1.5564 1.4918
C 5.7840 0.7743 0.4738
C 5.1897 -0.4416 0.1214
C -3.4997 -0.6649 -1.0975
H -6.7098 -1.6149 -1.4348
H -5.6075 -1.2285 -2.6284
H -5.4371 0.2838 -0.8145
H -4.8121 -2.2963 0.7852
H -6.2516 -1.2356 0.9768
H -4.5166 -0.7965 2.7290
H -4.8414 0.6540 1.7189
H -2.4072 0.3908 2.0564
H -2.4745 -1.3053 1.4742
H -3.2030 1.2258 -0.1374
H -1.4091 2.4620 -0.2632
H -0.3072 1.8738 -1.5190
H 1.3840 1.0494 0.3481
H -0.8743 2.3963 2.1030
H 0.8562 1.7089 2.6699
H 1.9593 3.2699 1.1846
H 0.2292 3.9548 0.6153
H -0.6632 0.1166 -3.2510
H 1.1261 0.2149 -4.9427
H 3.3772 -0.6766 -4.4302
H 3.8482 -1.6745 -2.2468
H 3.9819 -2.7803 -0.2913
H 3.2103 -2.7798 1.3115
H 2.5944 -0.4162 2.3343
H 3.6530 1.7295 2.9474
H 5.6896 2.4985 1.7609
H 6.6728 1.1115 -0.0437
H 5.6305 -1.0349 -0.6695
H -3.3852 -0.2345 -2.1165
H -3.0821 -1.6947 -1.1113
*
