! B3LYP 6-31G* SP

* xyz 0 1
C -6.0845 1.6158 -1.1716
O -4.6907 1.5366 -0.8915
C -4.0877 0.5042 -0.1575
C -4.8233 -0.5705 0.3767
C -4.1730 -1.5817 1.0876
C -2.7909 -1.5283 1.2802
C -2.0448 -0.4536 0.7750
N -0.6196 -0.4303 0.9682
C 0.1513 0.7800 1.0632
O -0.4058 1.8530 1.4198
C 1.6059 0.7932 0.8124
C 2.2457 -0.2042 0.1843
C 3.7066 -0.2115 -0.0773
C 4.3367 -1.4417 -0.3333
C 5.7091 -1.4980 -0.5940
C 6.4680 -0.3249 -0.6127
Cl 8.1893 -0.3972 -0.9425
C 5.8515 0.9067 -0.3765
C 4.4791 0.9681 -0.1144
C -2.7020 0.5519 0.0416
H -6.2834 2.5309 -1.7661
H -6.6616 1.6745 -0.2247
H -6.4063 0.7317 -1.7616
H -5.8941 -0.6373 0.2419
H -4.7418 -2.4104 1.4894
H -2.3011 -2.3206 1.8322
H -0.1407 -1.3364 1.1713
H 2.1495 1.6639 1.1515
H 1.6862 -1.0724 -0.1396
H 3.7666 -2.3629 -0.3229
H 6.1806 -2.4541 -0.7821
H 6.4335 1.8193 -0.4030
H 4.0316 1.9409 0.0319
H -2.1399 1.3654 -0.3980
*
