! B3LYP 6-31G* SP

* xyz 0 1
C -1.1239 -0.8429 2.9070
C -2.0892 -1.5987 1.9986
N -1.9160 -1.1892 0.5941
C -1.0585 -1.9549 -0.2878
O -1.1552 -1.8312 -1.5377
C -0.0302 -2.8691 0.2361
C -0.3423 -4.2209 0.4401
C 0.6327 -5.1034 0.9090
C 1.9279 -4.6446 1.1618
C 2.2523 -3.3013 0.9492
C 1.2736 -2.3995 0.4843
O 1.5550 -1.0415 0.2632
C 2.8258 -0.4296 0.4781
C 2.6993 1.0602 0.2690
C 1.8131 1.7628 1.1134
C 1.6376 3.1398 0.9690
C 2.3448 3.8378 -0.0094
C 3.2546 3.1644 -0.8423
C 3.4562 1.7789 -0.7006
C 4.4733 1.1018 -1.5873
C -2.5720 0.0580 0.1363
C -3.6222 -0.2106 -0.9785
C -3.2837 0.4772 -2.3129
C -3.0367 1.9894 -2.1473
C -2.2041 2.3496 -0.8812
N -1.2000 3.3779 -1.1765
C -1.5211 1.1205 -0.2542
H -1.2209 -1.2206 3.9471
H -1.3604 0.2427 2.8983
H -0.0767 -0.9922 2.5689
H -1.9318 -2.6913 2.1164
H -3.1324 -1.4005 2.3268
H -1.3430 -4.5876 0.2409
H 0.3854 -6.1451 1.0712
H 2.6834 -5.3320 1.5195
H 3.2652 -2.9766 1.1459
H 3.1569 -0.6065 1.5256
H 3.5660 -0.8993 -0.2021
H 1.2677 1.2400 1.8866
H 0.9553 3.6667 1.6249
H 2.2039 4.9053 -0.1227
H 3.8018 3.7305 -1.5879
H 5.2173 0.5571 -0.9599
H 3.9611 0.3917 -2.2726
H 5.0401 1.8369 -2.2054
H -3.1367 0.4985 0.9904
H -3.7435 -1.3035 -1.1504
H -4.6167 0.1637 -0.6423
H -4.1204 0.3202 -3.0271
H -2.3791 0.0081 -2.7582
H -4.0251 2.5106 -2.0908
H -2.5306 2.3610 -3.0729
H -2.9023 2.7636 -0.1170
H -0.5429 3.0214 -1.9075
H -1.6845 4.2191 -1.5716
H -0.9705 1.4317 0.6585
H -0.7774 0.7052 -0.9684
*
