! B3LYP 6-31G* SP

* xyz 0 1
C -3.1392 -1.7920 2.5254
N -3.3668 -0.8016 1.4543
C -2.6787 -0.9088 0.2773
O -1.8578 -1.8548 0.1382
C -2.8747 0.0323 -0.7626
C -2.2179 -0.0457 -2.0396
C -1.2483 -1.1433 -2.4444
C 0.1061 -0.9358 -1.8262
O 0.6348 0.2090 -1.8618
N 0.8138 -2.0483 -1.2570
C 2.0567 -1.9219 -0.5533
C 2.7670 -2.9711 -0.0098
C 3.8677 -2.3699 0.5637
N 3.7910 -1.0344 0.3622
C 4.7352 -0.0298 0.7890
C 5.7585 -0.3284 1.7113
C 6.6615 0.6606 2.1140
C 6.5555 1.9580 1.6065
Cl 7.6899 3.1958 2.1146
C 5.5425 2.2684 0.6959
C 4.6371 1.2834 0.2906
N 2.6890 -0.7568 -0.3197
C -2.4477 0.9592 -2.9922
C -3.3164 2.0054 -2.7324
C -3.9744 2.0826 -1.5144
C -3.7718 1.1098 -0.5061
N -4.4177 1.2038 0.7096
C -5.3442 2.3251 0.9833
C -4.2016 0.2579 1.6798
O -4.7745 0.3645 2.8021
H -4.0401 -1.9174 3.1633
H -2.9217 -2.7984 2.1079
H -2.2864 -1.4672 3.1581
H -1.1113 -1.1634 -3.5474
H -1.6662 -2.1417 -2.2019
H 0.3957 -3.0023 -1.3412
H 2.5223 -4.0247 -0.0317
H 4.6670 -2.8886 1.0739
H 5.8601 -1.3166 2.1356
H 7.4416 0.4171 2.8242
H 5.4551 3.2725 0.3008
H 3.8628 1.5472 -0.4183
H -1.9494 0.9348 -3.9539
H -3.4821 2.7665 -3.4844
H -4.6379 2.9239 -1.3781
H -5.8100 2.2788 1.9889
H -4.7970 3.2903 0.9267
H -6.1774 2.3158 0.2486
*
