! B3LYP 6-31G* SP

* xyz 0 1
C 2.4609 -1.8911 -1.0565
C 1.6063 -1.8263 0.2216
C 1.2902 -3.2312 0.6993
C 0.2811 -3.9988 0.0876
C 0.0152 -5.2985 0.5290
C 0.7575 -5.8492 1.5765
F 0.4982 -7.1101 2.0020
C 1.7704 -5.1017 2.1821
C 2.0399 -3.8015 1.7445
N 0.3689 -1.0132 0.0928
C -0.2396 -0.7269 -1.2231
C 0.3348 0.5055 -1.8926
C 0.0094 0.7481 -3.2355
C 0.4893 1.8848 -3.8875
C 1.2936 2.7992 -3.2057
C 1.6266 2.5855 -1.8573
C 2.4723 3.5561 -1.1273
O 2.9097 4.5860 -1.7085
O 2.7933 3.3412 0.2106
C 1.1419 1.4370 -1.2069
C -0.2936 -0.5950 1.3169
O -0.0247 -1.1892 2.3970
C -1.2712 0.5170 1.3732
C -2.0818 0.8109 2.4701
C -2.7679 1.9359 2.0728
C -3.7221 2.6814 2.7615
C -4.2616 3.8026 2.1095
C -3.8371 4.1421 0.8095
C -2.8706 3.3509 0.1698
N -2.3787 2.2760 0.8357
N -1.4663 1.4306 0.3930
H 2.7073 -0.8720 -1.4162
H 3.4205 -2.4053 -0.8341
H 1.9554 -2.4613 -1.8631
H 2.2513 -1.3221 0.9769
H -0.3023 -3.5973 -0.7283
H -0.7661 -5.8792 0.0557
H 2.3498 -5.5298 2.9901
H 2.8330 -3.2401 2.2225
H -1.3402 -0.6182 -1.1253
H -0.1108 -1.5955 -1.8993
H -0.6201 0.0542 -3.7792
H 0.2338 2.0596 -4.9247
H 1.6516 3.6744 -3.7332
H 3.3717 3.9992 0.7194
H 1.3932 1.2728 -0.1679
H -2.1525 0.2850 3.4134
H -4.0367 2.4095 3.7611
H -5.0059 4.4091 2.6087
H -4.2519 5.0070 0.3087
H -2.5257 3.5921 -0.8278
*
