! B3LYP 6-31G* SP

* xyz 0 1
C 0.1933 -2.1070 -1.5209
C -0.7568 -2.0806 -0.3436
C -1.3308 -0.8636 0.0945
N -1.0481 0.3738 -0.5692
C -0.2081 1.3755 0.0873
C 1.2164 0.8971 0.1325
C 2.0689 1.1162 -0.9600
C 3.3701 0.6065 -0.9524
C 3.8301 -0.1454 0.1401
C 5.2397 -0.6679 0.1616
C 6.1619 0.3479 0.8460
C 7.6339 0.2249 0.4835
C 6.8074 1.3752 -0.0721
C 2.9779 -0.3617 1.2342
C 1.6769 0.1481 1.2263
S -1.9352 0.7918 -2.0002
O -2.6253 -0.4238 -2.5542
O -0.9844 1.3142 -3.0408
C -3.1408 2.0063 -1.5929
C -2.9903 3.3332 -2.0148
C -3.9445 4.2944 -1.6681
C -5.0618 3.9415 -0.8894
C -6.0752 4.9545 -0.5204
O -5.9469 6.1518 -0.8941
O -7.1829 4.5939 0.2429
C -5.2019 2.6090 -0.4635
C -4.2462 1.6501 -0.8118
N -2.1522 -0.8461 1.1766
C -2.4672 -1.9669 1.8690
C -1.9406 -3.2019 1.4829
C -2.2652 -4.3645 2.1989
C -1.7347 -5.5963 1.8145
C -0.8785 -5.6772 0.7164
C -0.5464 -4.5277 -0.0054
C -1.0722 -3.2696 0.3644
H 0.3611 -1.1077 -1.9671
H 1.1824 -2.4909 -1.1936
H -0.2161 -2.7625 -2.3178
H -0.5876 1.5676 1.1145
H -0.2599 2.3428 -0.4583
H 1.7228 1.6744 -1.8210
H 4.0168 0.7923 -1.8008
H 5.2791 -1.6209 0.7318
H 5.5726 -0.9005 -0.8747
H 5.9588 0.6815 1.8865
H 7.8933 -0.5487 -0.2713
H 8.3346 0.5258 1.2909
H 7.0153 2.3539 0.4096
H 6.5742 1.2826 -1.1546
H 3.3193 -0.9298 2.0907
H 1.0252 -0.0487 2.0686
H -2.1347 3.6279 -2.6084
H -3.8063 5.3130 -2.0082
H -7.8829 5.2795 0.5001
H -6.0480 2.3065 0.1405
H -4.3662 0.6295 -0.4698
H -3.1299 -1.8896 2.7221
H -2.9279 -4.3199 3.0551
H -1.9873 -6.4906 2.3694
H -0.4696 -6.6355 0.4225
H 0.1206 -4.6383 -0.8495
*
