! B3LYP 6-31G* SP

* xyz 0 1
C -5.3822 -1.8257 -2.1068
O -5.2367 -2.1101 -0.7192
C -4.8029 -1.1823 0.2409
C -4.4848 0.1496 -0.0921
C -4.0529 1.0476 0.8968
C -3.6633 2.4531 0.5313
N -2.2246 2.5169 0.2912
C -1.6443 2.2110 -0.9837
O -2.3745 2.0824 -2.0039
C -0.1681 1.9841 -1.1012
C 0.1726 0.5342 -0.7324
C 1.6700 0.2241 -0.8835
C 2.5084 0.8080 0.2639
C 3.9674 0.4856 0.0932
C 4.4344 -0.7674 0.2303
C 5.8981 -1.1153 0.0781
C 6.7476 -0.4301 1.1553
C 6.4101 -0.7827 -1.3292
C -3.9185 0.6043 2.2203
C -4.2379 -0.7120 2.5570
C -4.6809 -1.6055 1.5726
O -4.9985 -2.9208 1.9094
H -6.1360 -1.0240 -2.2556
H -4.4062 -1.5186 -2.5380
H -5.7294 -2.7402 -2.6294
H -4.5672 0.4932 -1.1144
H -4.2242 2.8009 -0.3636
H -3.9258 3.1454 1.3610
H -1.5942 2.6185 1.1187
H 0.1567 2.1942 -2.1436
H 0.3577 2.6922 -0.4275
H -0.1562 0.3163 0.3081
H -0.3910 -0.1443 -1.4106
H 1.7897 -0.8811 -0.8901
H 2.0406 0.6067 -1.8595
H 2.1544 0.4116 1.2405
H 2.4012 1.9117 0.2826
H 4.6518 1.3020 -0.1180
H 3.7420 -1.5729 0.4611
H 5.9992 -2.2143 0.2203
H 7.8021 -0.7706 1.0819
H 6.7239 0.6744 1.0397
H 6.3677 -0.6946 2.1658
H 7.4555 -1.1401 -1.4469
H 5.7819 -1.2892 -2.0935
H 6.3887 0.3130 -1.5141
H -3.5670 1.2789 2.9915
H -4.1371 -1.0391 3.5842
H -4.9172 -3.2588 2.8611
*
