! B3LYP 6-31G* SP

* xyz 0 1
O 2.2207 -2.7342 0.3425
C 1.8091 -1.5437 0.2965
C 0.3730 -1.2846 0.0608
S -0.4927 0.0146 0.6907
C -1.9739 -0.4876 0.0610
C -3.2714 0.2209 0.2268
C -3.3246 1.4260 0.9562
C -4.5327 2.1070 1.1232
C -5.7056 1.5993 0.5669
C -5.6745 0.4084 -0.1585
C -4.4681 -0.2866 -0.3344
O -4.4665 -1.4753 -1.0643
N -1.8240 -1.6432 -0.6262
C -0.5390 -2.0894 -0.6331
O -0.1986 -3.2549 -1.3172
N 2.7380 -0.4630 0.5029
C 4.1398 -0.7319 0.8449
C 4.9678 0.5391 0.6325
C 4.5677 1.2288 -0.6845
C 3.0331 1.2444 -0.8908
O 2.3580 0.8274 0.2757
H -2.4339 1.8490 1.4012
H -4.5586 3.0314 1.6857
H -6.6402 2.1293 0.6980
H -6.5918 0.0236 -0.5860
H -5.3145 -1.8517 -1.4721
H 0.7567 -3.5710 -1.4151
H 4.2146 -1.0706 1.9003
H 4.5408 -1.5275 0.1793
H 6.0515 0.2929 0.6219
H 4.7810 1.2371 1.4782
H 4.9597 2.2691 -0.6796
H 5.0440 0.6944 -1.5353
H 2.7495 0.5961 -1.7516
H 2.7056 2.2760 -1.1394
*
