! B3LYP 6-31G* SP

* xyz 0 1
C -1.9042 0.1257 -2.6691
C -2.9399 -0.0037 -1.6004
O -3.9412 0.8429 -1.4490
C -4.6298 0.4553 -0.4007
C -4.0866 -0.6603 0.1562
C -2.9856 -0.9911 -0.6160
C -1.9825 -2.0845 -0.3848
C -0.8389 -1.5654 0.4324
O -1.0233 -1.3081 1.6515
N 0.4484 -1.3654 -0.1726
C 1.5125 -0.6077 0.4186
N 2.7641 -0.6016 -0.0881
C 3.5971 0.2276 0.6013
C 5.0281 0.3805 0.2303
C 5.9706 0.8215 1.1778
C 7.3181 0.9513 0.8383
C 7.7607 0.6409 -0.4598
C 9.2221 0.7366 -0.8294
F 9.7308 -0.5368 -1.0131
F 9.3630 1.4529 -2.0040
F 9.9588 1.3706 0.1569
C 6.8251 0.1850 -1.4049
F 7.2259 -0.1558 -2.6570
C 5.4726 0.0652 -1.0698
F 4.5993 -0.3475 -2.0236
C 2.9885 0.9044 1.6650
S 1.3736 0.4390 1.7310
C -4.6522 -1.2118 1.2985
O -4.1331 -2.2227 1.8431
N -5.7829 -0.6283 1.8196
C -6.3881 -1.1885 3.0377
C -6.3069 0.5144 1.2414
O -7.3216 1.0685 1.7498
N -5.7309 1.0614 0.1176
C -6.2925 2.2666 -0.5027
H -0.9157 0.3299 -2.2082
H -2.1635 0.9629 -3.3471
H -1.8506 -0.8126 -3.2583
H -2.4520 -2.9439 0.1340
H -1.6195 -2.4640 -1.3632
H 0.6255 -1.7865 -1.1108
H 5.6775 1.0466 2.1924
H 8.0140 1.2825 1.5991
H 3.4514 1.6262 2.3233
H -7.4631 -0.9308 3.1162
H -6.3314 -2.2957 3.0316
H -5.8566 -0.8022 3.9325
H -5.6841 2.6127 -1.3643
H -6.3309 3.0877 0.2419
H -7.3199 2.0561 -0.8670
*
