! B3LYP 6-31G* SP

* xyz 0 1
C -4.5698 2.0448 2.5758
O -3.5600 1.2407 1.9748
C -3.7742 -0.0380 1.4319
C -5.0507 -0.6364 1.4361
C -5.2396 -1.9058 0.8881
C -4.1623 -2.5968 0.3371
C -2.8914 -2.0198 0.3258
C -2.6838 -0.7319 0.8609
C -1.3340 -0.1111 0.8732
C -0.3894 -0.3864 -0.0374
C 0.9411 0.2515 -0.0110
O 1.2420 1.0606 0.9097
N 1.9030 -0.0769 -1.0246
C 3.1659 0.5969 -1.1562
C 3.2020 2.0029 -1.1488
C 4.3991 2.6850 -1.3673
C 5.5731 1.9745 -1.6089
C 5.5562 0.5788 -1.6251
C 4.3613 -0.1295 -1.3925
C 4.4019 -1.6123 -1.3595
O 5.3293 -2.2327 -1.9469
O 3.4451 -2.3352 -0.6523
H -5.0017 1.5218 3.4550
H -5.3660 2.2740 1.8364
H -4.1177 2.9985 2.9172
H -5.9052 -0.1279 1.8608
H -6.2232 -2.3575 0.8965
H -4.3102 -3.5866 -0.0753
H -2.0711 -2.5971 -0.0789
H -1.1264 0.6302 1.6356
H -0.5961 -1.0753 -0.8454
H 1.6836 -0.8539 -1.6880
H 2.2935 2.5732 -1.0032
H 4.4136 3.7673 -1.3628
H 6.4999 2.5060 -1.7825
H 6.4857 0.0515 -1.8013
H 3.4765 -3.3472 -0.6189
*
