! B3LYP 6-31G* SP

* xyz 0 1
C -2.2397 -1.3033 -3.1797
C -3.0485 -0.8246 -2.0187
O -3.8977 0.1823 -2.0911
C -4.4114 0.3513 -0.8954
C -3.9012 -0.5483 -0.0097
C -3.0112 -1.3382 -0.7211
C -2.1120 -2.4298 -0.2118
C -0.7330 -1.8954 0.0313
O 0.1969 -2.2066 -0.7613
N -0.4859 -1.0213 1.1435
C 0.7805 -0.4051 1.4081
N 1.8803 -0.5712 0.6431
C 2.9469 0.1327 1.1164
C 4.2617 0.1026 0.4238
C 4.3519 -0.4088 -0.8795
C 5.5771 -0.4432 -1.5455
C 6.7443 0.0358 -0.9401
O 7.9175 -0.0197 -1.7156
C 9.0368 0.8618 -1.6530
F 9.9464 0.4130 -0.7145
F 8.6308 2.1516 -1.3577
F 9.6587 0.8707 -2.8863
C 6.6719 0.5198 0.3917
Cl 8.0756 1.0007 1.3352
C 5.4358 0.5534 1.0527
C 2.6798 0.8738 2.2733
S 1.0711 0.6254 2.6993
C -4.3118 -0.5221 1.3189
O -3.8707 -1.3703 2.1415
N -5.2113 0.4436 1.7098
C -5.6789 0.4874 3.1057
C -5.7299 1.3306 0.7823
O -6.5794 2.1935 1.1445
N -5.3323 1.2841 -0.5347
C -5.8464 2.2489 -1.5148
H -2.3801 -2.3960 -3.3138
H -2.5634 -0.7842 -4.1060
H -1.1662 -1.0863 -3.0016
H -2.0732 -3.2505 -0.9598
H -2.5101 -2.8706 0.7236
H -1.2733 -0.8079 1.7947
H 3.4717 -0.7746 -1.3935
H 5.6177 -0.8318 -2.5555
H 5.4088 0.9060 2.0745
H 3.3639 1.5198 2.8048
H -4.9039 0.1082 3.8055
H -6.5963 -0.1290 3.2101
H -5.9006 1.5291 3.4215
H -5.3712 3.2384 -1.3473
H -6.9483 2.3500 -1.4140
H -5.6385 1.9244 -2.5568
*
