! B3LYP 6-31G* SP

* xyz 0 1
C 2.6585 1.7838 -1.5935
C 2.7953 0.2640 -1.6781
N 3.2526 -0.3023 -0.4003
C 4.6212 -0.0390 0.0557
C 2.4700 -1.2904 0.3025
O 3.0554 -2.2619 0.8537
C 0.9993 -1.1911 0.4203
S 0.0806 0.2133 0.2894
C -1.3806 -0.5560 0.6312
C -2.7097 0.0946 0.6879
C -2.8529 1.4727 0.4375
C -4.1138 2.0750 0.4937
C -5.2427 1.3118 0.7991
C -5.1133 -0.0559 1.0491
C -3.8551 -0.6636 0.9943
N -1.1840 -1.8749 0.8601
C 0.1258 -2.2269 0.7510
O 0.5477 -3.5369 0.9542
H 2.1861 2.1660 -2.5228
H 3.6543 2.2614 -1.4869
H 2.0289 2.0735 -0.7278
H 3.5227 0.0054 -2.4778
H 1.8202 -0.1735 -1.9806
H 5.1516 0.6544 -0.6302
H 5.2006 -0.9857 0.0927
H 4.5947 0.4152 1.0684
H -1.9954 2.0877 0.1981
H -4.2154 3.1350 0.2999
H -6.2175 1.7802 0.8420
H -5.9889 -0.6467 1.2857
H -3.7798 -1.7255 1.1918
H -0.1165 -4.2636 1.1918
*
