! B3LYP 6-31G* SP

* xyz 0 1
C -4.4102 2.2704 3.0118
C -3.4403 2.1048 1.8796
C -3.0171 3.2193 1.1410
C -2.0966 3.0651 0.1027
C -1.5783 1.8032 -0.1954
C -1.9612 0.6794 0.5609
C -1.4273 -0.7047 0.2379
N -0.0265 -0.6345 -0.1927
C 1.0363 -0.3264 0.7240
O 0.8196 -0.3679 1.9663
C 2.3883 0.0291 0.2332
C 2.5654 0.6162 -1.0342
C 3.8426 0.9578 -1.4888
C 4.9619 0.7231 -0.6803
C 6.2534 1.0551 -1.1103
C 7.3464 0.8099 -0.2761
C 7.1375 0.2359 0.9803
N 5.8789 -0.0811 1.3865
C 4.7941 0.1452 0.5967
C 3.5136 -0.1932 1.0482
C -2.2692 -1.3772 -0.8340
N -2.7767 -0.6008 -1.8347
C -3.5156 -1.1061 -2.8535
C -3.7772 -2.4699 -2.9115
C -3.2607 -3.3069 -1.9249
C -2.4773 -2.7849 -0.8770
C -1.9171 -3.7204 0.1781
F -0.5590 -3.5079 0.3319
F -2.0992 -5.0490 -0.1673
F -2.5582 -3.4962 1.3827
C -2.9031 0.8405 1.5922
H -5.0782 1.3859 3.0826
H -5.0455 3.1688 2.8607
H -3.8508 2.3803 3.9641
H -3.4044 4.2057 1.3641
H -1.7853 3.9260 -0.4744
H -0.8779 1.7046 -1.0149
H -1.4728 -1.3043 1.1698
H 0.2027 -0.8014 -1.1986
H 1.7169 0.8366 -1.6687
H 3.9540 1.4108 -2.4670
H 6.4161 1.5008 -2.0845
H 8.3475 1.0635 -0.6002
H 7.9776 0.0433 1.6341
H 3.3988 -0.6400 2.0288
H -3.9006 -0.4454 -3.6184
H -4.3716 -2.8780 -3.7189
H -3.4738 -4.3657 -1.9913
H -3.2197 -0.0192 2.1715
*
