! B3LYP 6-31G* SP

* xyz 0 1
N 7.6274 3.5852 -1.6145
C 6.6513 3.0922 -1.2358
C 5.4364 2.4788 -0.7645
C 4.9372 2.8044 0.5026
C 3.7584 2.2133 0.9675
C 3.0653 1.2867 0.1648
O 1.8799 0.6664 0.5841
C 1.2486 0.8966 1.8436
C -0.0368 0.0592 1.9808
O -0.7045 0.2724 3.1974
C -0.9914 0.1331 0.7962
N -0.8429 -1.2983 0.4899
S -2.3287 -2.1693 0.8047
O -2.0329 -3.6428 0.8176
O -2.8909 -1.7626 2.1404
C -3.5206 -1.8410 -0.4606
C -3.1370 -1.1264 -1.6074
C -4.0632 -0.8563 -2.6176
C -5.3809 -1.3029 -2.4980
Cl -6.5417 -0.9635 -3.7686
C -5.7717 -2.0263 -1.3681
C -4.8505 -2.3021 -0.3499
Cl -5.4002 -3.2406 1.0344
C 0.0859 -1.4189 1.6235
C 3.5708 0.9662 -1.1008
C 4.7498 1.5568 -1.5670
F 5.2194 1.2295 -2.7980
H 5.4594 3.5156 1.1315
H 3.3956 2.4830 1.9499
H 1.9474 0.6211 2.6629
H 0.9855 1.9725 1.9365
H -0.1044 -0.0655 3.9123
H -0.6099 0.7503 -0.0462
H -2.0238 0.4390 1.0814
H -2.1204 -0.7787 -1.7290
H -3.7541 -0.3017 -3.4945
H -6.7922 -2.3783 -1.2827
H 1.0988 -1.7054 1.2661
H -0.2637 -2.0964 2.4359
H 3.0452 0.2549 -1.7256
*
