! B3LYP 6-31G* SP

* xyz 0 1
C -5.7320 2.6609 -0.0397
N -5.2156 1.2814 -0.0853
C -4.4093 0.8859 -1.1280
O -4.1202 1.6827 -2.0620
C -3.9105 -0.4148 -1.1268
C -4.2145 -1.2542 -0.0987
C -3.5607 -2.4530 -0.3213
C -2.8749 -2.2736 -1.5155
N -3.0937 -1.0312 -2.0120
C -2.4642 -0.4802 -3.2138
C -1.2960 0.3798 -2.8363
O -1.3128 1.6063 -3.1257
N -0.1657 -0.2051 -2.1704
C 0.8951 0.5382 -1.5535
N 1.9968 -0.0566 -1.0504
C 2.8546 0.8351 -0.4785
C 4.1398 0.3926 0.1240
C 4.6172 -0.9075 -0.1233
C 5.8263 -1.3396 0.4281
C 6.5842 -0.4899 1.2398
O 7.7947 -0.9759 1.7603
C 8.6860 -0.2414 2.5964
F 8.0524 0.1107 3.7750
F 9.7758 -1.0362 2.8965
F 9.1287 0.8935 1.9405
C 6.1074 0.8074 1.5029
C 4.8986 1.2429 0.9510
C 2.4199 2.1645 -0.5261
S 0.9277 2.2014 -1.3002
N -5.0012 -0.8768 0.9473
C -5.2585 -1.8081 2.0563
C -5.4812 0.4154 0.9614
O -6.1653 0.8164 1.9454
H -5.0330 3.3012 0.5394
H -5.8546 3.0845 -1.0594
H -6.7370 2.6953 0.4333
H -3.5565 -3.3367 0.3020
H -2.2356 -3.0120 -1.9831
H -2.1054 -1.3051 -3.8669
H -3.2083 0.0968 -3.8034
H -0.1120 -1.2473 -2.1196
H 4.0613 -1.5916 -0.7520
H 6.1792 -2.3420 0.2197
H 6.6588 1.4890 2.1344
H 4.5608 2.2417 1.1890
H 2.9403 3.0349 -0.1539
H -5.4819 -2.8241 1.6656
H -6.1380 -1.4991 2.6598
H -4.3671 -1.8564 2.7172
*
