! B3LYP 6-31G* SP

* xyz 0 1
C -5.0915 2.6949 -1.0863
C -4.0722 1.9834 -0.2000
C -3.6463 0.6444 -0.8135
C -2.6346 -0.0468 0.0664
N -1.3262 0.1500 -0.2259
C -0.3091 -0.3840 0.4933
N 1.0362 -0.0507 0.1227
C 1.5313 -0.4009 -1.2094
C 2.0219 -1.8215 -1.2177
C 3.3961 -2.0984 -1.2165
C 3.8514 -3.4199 -1.1889
C 2.9336 -4.4874 -1.1419
O 3.3353 -5.8326 -1.0817
C 4.6841 -6.2933 -1.1551
F 5.2483 -5.9167 -2.3630
F 4.6915 -7.6741 -1.0681
F 5.4254 -5.7797 -0.1034
C 1.5614 -4.2060 -1.1449
C 1.1064 -2.8859 -1.1891
S 1.9130 1.0984 1.0882
O 3.3427 0.6467 1.2094
O 1.3179 1.1838 2.4673
C 1.8163 2.6846 0.3314
C 2.9770 3.4055 0.0209
C 2.8832 4.6695 -0.5699
C 1.6248 5.2315 -0.8594
C 1.5176 6.5758 -1.4669
O 2.5507 7.2680 -1.6720
O 0.2718 7.0929 -1.8116
C 0.4656 4.4985 -0.5534
C 0.5627 3.2373 0.0418
C -0.5874 -1.2221 1.5920
C 0.5380 -1.9105 2.3352
C -1.9421 -1.4127 1.9707
C -2.2886 -2.1758 3.1084
C -3.6237 -2.3429 3.4773
C -4.6370 -1.7534 2.7272
C -4.3252 -0.9963 1.5997
C -2.9817 -0.8137 1.2032
H -5.9983 2.0646 -1.2121
H -5.3886 3.6561 -0.6128
H -4.6509 2.9094 -2.0849
H -4.5221 1.8183 0.8038
H -3.1820 2.6391 -0.0788
H -3.1875 0.8360 -1.8093
H -4.5249 -0.0096 -1.0005
H 2.3505 0.2902 -1.5070
H 0.7242 -0.2746 -1.9632
H 4.1176 -1.2920 -1.2355
H 4.9170 -3.5963 -1.1948
H 0.8440 -5.0158 -1.1085
H 0.0407 -2.6928 -1.1856
H 3.9551 2.9971 0.2381
H 3.7951 5.2067 -0.7981
H 0.1839 8.0169 -2.2165
H -0.5175 4.9017 -0.7644
H -0.3425 2.6957 0.2837
H 1.5248 -1.7750 1.8478
H 0.6045 -1.5121 3.3697
H 0.3485 -3.0033 2.3713
H -1.5371 -2.6410 3.7313
H -3.8734 -2.9288 4.3528
H -5.6716 -1.8784 3.0228
H -5.1484 -0.5520 1.0587
*
