! B3LYP 6-31G* SP

* xyz 0 1
N -3.2136 -0.7128 -2.7151
C -1.8549 -0.2842 -2.6222
O -1.1838 -0.1413 -3.6783
C -1.2583 0.0655 -1.2763
C -1.4958 -1.0229 -0.2430
C -1.3216 -2.3854 -0.5593
C -1.4754 -3.3661 0.4243
C -1.7937 -3.0001 1.7333
C -1.9604 -1.6523 2.0612
C -1.8138 -0.6680 1.0804
N 0.1801 0.3958 -1.3813
C 0.5921 1.7697 -1.7042
C 0.3388 2.6954 -0.5424
C 1.2362 2.7364 0.5384
C 0.9848 3.5727 1.6302
C -0.1594 4.3754 1.6520
C -1.0591 4.3422 0.5800
Cl -2.5081 5.3317 0.6190
C -0.8080 3.5100 -0.5171
C 1.1576 -0.6503 -1.5247
O 1.4020 -1.1031 -2.6784
C 1.8938 -1.1802 -0.3474
C 1.6204 -0.7078 0.9492
C 2.3295 -1.1992 2.0495
C 3.3225 -2.1638 1.8708
C 3.5999 -2.6469 0.5909
C 2.8859 -2.1654 -0.5132
H -3.6344 -0.9339 -3.6449
H -3.8012 -0.8106 -1.8585
H -1.8090 0.9697 -0.9437
H -1.0526 -2.6880 -1.5627
H -1.3398 -4.4103 0.1729
H -1.9049 -3.7599 2.4949
H -2.1953 -1.3694 3.0784
H -1.9248 0.3736 1.3576
H 1.6775 1.8036 -1.9556
H 0.0501 2.1184 -2.6118
H 2.1290 2.1214 0.5353
H 1.6815 3.5980 2.4607
H -0.3481 5.0163 2.5044
H -1.5145 3.4886 -1.3418
H 0.8612 0.0421 1.1187
H 2.1144 -0.8233 3.0410
H 3.8821 -2.5318 2.7215
H 4.3692 -3.3958 0.4527
H 3.1220 -2.5535 -1.4952
*
