! B3LYP 6-31G* SP

* xyz 0 1
O 6.2777 0.8334 2.3768
C 6.0464 0.5292 1.1753
O 7.0265 0.7597 0.2133
C 4.7481 -0.0660 0.7896
C 4.4905 -0.4002 -0.5512
C 3.2624 -0.9573 -0.9190
C 2.2779 -1.1957 0.0469
S 0.7118 -1.8380 -0.4383
O 0.9260 -2.9323 -1.4467
O -0.0102 -2.4048 0.7522
N -0.2290 -0.5580 -1.1370
C -1.3298 -0.8724 -2.0490
C -2.5524 -1.2695 -1.2682
C -2.8109 -2.6200 -0.9919
C -3.9225 -2.9838 -0.2267
C -4.8008 -2.0031 0.2657
C -5.9695 -2.3934 1.1350
F -5.5582 -2.4455 2.4538
F -6.9959 -1.4718 1.0189
F -6.4589 -3.6345 0.7657
C -4.5181 -0.6488 0.0173
C -3.4064 -0.2859 -0.7481
C -0.1271 0.7496 -0.5628
N -0.4640 0.9335 0.7421
C -0.3637 2.1442 1.3498
C 0.1204 3.2543 0.6406
C 0.1899 4.6118 1.2920
F 0.4572 4.4899 2.6445
F -1.0213 5.2574 1.1283
F 1.1908 5.3784 0.7205
C 0.4578 3.0876 -0.7117
C 0.3486 1.8330 -1.3167
Cl 0.8579 1.6328 -2.9874
C 2.5242 -0.8579 1.3834
C 3.7510 -0.2998 1.7539
H 7.9175 1.1698 0.4664
H 5.2346 -0.2265 -1.3181
H 3.0755 -1.1935 -1.9593
H -1.5638 0.0076 -2.6865
H -1.0267 -1.6877 -2.7400
H -2.1455 -3.3914 -1.3595
H -4.0920 -4.0320 -0.0145
H -5.1534 0.1301 0.4198
H -3.2051 0.7633 -0.9267
H -0.6616 2.2377 2.3859
H 0.8133 3.9278 -1.2952
H 1.7646 -1.0145 2.1383
H 3.9161 -0.0467 2.7936
*
