! B3LYP 6-31G* SP

* xyz 0 1
C -2.7964 -5.2361 3.5243
C -2.2448 -4.2578 2.5298
C -1.7241 -4.7111 1.3117
C -1.1749 -3.8107 0.3957
C -1.1226 -2.4300 0.6854
C -0.5705 -1.4880 -0.2214
C 0.0152 -1.9337 -1.5434
C -0.5529 -0.1236 0.1526
N 0.0010 0.8773 -0.7092
C 1.2684 1.5178 -0.3578
C 2.3965 0.5355 -0.5094
C 3.0176 0.3608 -1.7544
C 4.0150 -0.6050 -1.9147
C 4.3986 -1.4187 -0.8422
O 5.4022 -2.3759 -1.0618
C 5.8963 -3.2897 -0.0850
F 6.8720 -4.0786 -0.6626
F 6.4522 -2.5987 0.9772
F 4.8732 -4.1046 0.3659
C 3.7675 -1.2497 0.4057
C 2.7724 -0.2817 0.5670
S -0.9711 1.5267 -1.9912
O -2.1459 0.6266 -2.2558
O -0.1468 1.6140 -3.2454
C -1.5557 3.1170 -1.5181
C -1.0664 4.2737 -2.1380
C -1.5233 5.5334 -1.7384
C -2.4731 5.6536 -0.7087
C -2.9521 6.9882 -0.2863
O -3.8004 7.0985 0.6399
O -2.4694 8.1367 -0.9087
C -2.9559 4.4875 -0.0872
C -2.4981 3.2296 -0.4894
N -1.0438 0.2597 1.3595
C -1.5756 -0.6202 2.2411
C -1.6321 -1.9807 1.9284
C -2.1820 -2.8935 2.8416
H -1.9770 -5.5977 4.1799
H -3.2559 -6.1046 3.0057
H -3.5789 -4.7589 4.1521
H -1.7434 -5.7668 1.0684
H -0.7917 -4.2102 -0.5335
H 0.4199 -1.0962 -2.1449
H 0.8515 -2.6417 -1.3611
H -0.7693 -2.4314 -2.1518
H 1.2197 1.8964 0.6864
H 1.4507 2.4003 -1.0089
H 2.7238 0.9662 -2.6027
H 4.4878 -0.7277 -2.8809
H 4.0317 -1.8620 1.2561
H 2.2853 -0.1776 1.5289
H -0.3284 4.2046 -2.9270
H -1.1293 6.4120 -2.2342
H -2.7902 9.0553 -0.6268
H -3.6851 4.5466 0.7111
H -2.8760 2.3426 0.0041
H -1.9533 -0.2533 3.1874
H -2.5620 -2.5445 3.7953
*
