! B3LYP 6-31G* SP

* xyz 0 1
C -5.8277 0.6204 0.4598
C -5.0219 -0.6012 0.0489
O -3.6337 -0.2873 0.0775
C -2.6422 -1.2110 -0.2674
O -2.9590 -2.3921 -0.5798
C -1.2157 -0.8263 -0.2072
C -0.2790 -1.7765 0.2329
C 1.0668 -1.4373 0.3820
C 1.5102 -0.1370 0.0952
C 2.9399 0.2287 0.2658
C 3.2989 1.4771 0.8088
C 4.6450 1.8192 0.9690
C 5.6463 0.9226 0.5896
C 5.3037 -0.3191 0.0490
F 6.2768 -1.1867 -0.3234
C 3.9586 -0.6667 -0.1126
C 0.5808 0.8107 -0.3647
C -0.7671 0.4745 -0.5399
O -1.6142 1.4450 -1.0797
H -5.6287 1.4590 -0.2408
H -6.9115 0.3800 0.4370
H -5.5480 0.9307 1.4889
H -5.3166 -0.9065 -0.9786
H -5.2330 -1.4351 0.7530
H -0.5945 -2.7798 0.4931
H 1.7560 -2.1866 0.7508
H 2.5393 2.1809 1.1253
H 4.9119 2.7795 1.3911
H 6.6874 1.1911 0.7149
H 3.7146 -1.6269 -0.5495
H 0.9077 1.8090 -0.6290
H -2.5509 1.2478 -1.4043
*
