! B3LYP 6-31G* SP

* xyz -1 1
C -1.4763 -0.4363 1.9604
C -0.5864 0.7490 1.6599
C 0.4086 0.6746 0.6554
N 0.6220 -0.5279 -0.0932
C 0.2424 -0.5816 -1.5049
C -1.2558 -0.5993 -1.6300
C -1.9735 0.6039 -1.7064
C -3.3707 0.5922 -1.7429
C -4.0722 -0.6283 -1.6954
O -5.4743 -0.7000 -1.7248
C -6.3550 0.4194 -1.7931
F -7.6591 -0.0361 -1.7990
F -6.1731 1.2376 -0.6926
F -6.1278 1.1352 -2.9550
C -3.3513 -1.8253 -1.6111
C -1.9545 -1.8138 -1.5722
S 1.5758 -1.8033 0.5961
O 0.8617 -3.1125 0.4052
O 1.7635 -1.5709 2.0698
C 3.1508 -1.8310 -0.1877
C 3.5615 -2.9429 -0.9343
C 4.8090 -2.9445 -1.5662
C 5.6617 -1.8314 -1.4634
C 6.9799 -1.8352 -2.1352
O 7.7457 -0.8382 -2.0494
O 7.3920 -2.9401 -2.8718
C 5.2409 -0.7171 -0.7147
C 3.9941 -0.7189 -0.0827
N 1.1693 1.7637 0.3657
C 1.0290 2.9430 1.0187
C 0.0767 3.0738 2.0265
N -0.0594 4.2586 2.6808
C -0.9771 4.4300 3.6668
C -1.8135 3.3766 4.0338
C -1.6999 2.1477 3.3815
C -0.7455 1.9726 2.3587
H -1.2682 -1.3104 1.3136
H -1.3314 -0.7549 3.0140
H -2.5385 -0.1559 1.7995
H 0.6690 -1.4885 -1.9867
H 0.6677 0.2946 -2.0413
H -1.4508 1.5526 -1.7240
H -3.8914 1.5372 -1.8006
H -3.8780 -2.7701 -1.5663
H -1.4183 -2.7506 -1.4860
H 2.9191 -3.8085 -1.0317
H 5.1037 -3.8167 -2.1364
H 5.8738 0.1563 -0.6178
H 3.6845 0.1483 0.4871
H 1.6623 3.7791 0.7510
H -1.0575 5.3861 4.1663
H -2.5457 3.5113 4.8195
H -2.3595 1.3467 3.6864
*
