! B3LYP 6-31G* SP

* xyz 0 1
C -3.7023 -0.5326 -1.8102
O -3.8215 0.4854 -0.8398
C -3.8401 -0.0749 0.4613
C -2.4483 -0.1545 1.0477
N -1.4042 0.2668 0.2908
C -0.1180 0.2445 0.7151
N 0.9028 0.6923 -0.1836
C 1.2470 -0.1220 -1.3492
C 1.9624 -1.3682 -0.9079
C 3.3525 -1.3561 -0.7245
C 4.0084 -2.4899 -0.2386
C 3.2888 -3.6470 0.0832
O 3.9996 -4.7549 0.5718
C 3.4200 -5.9963 0.9663
F 2.5325 -5.7976 2.0093
F 2.7670 -6.5806 -0.1045
F 4.4243 -6.8444 1.3915
C 1.8910 -3.6547 -0.0894
C 1.2352 -2.5218 -0.5788
S 1.4554 2.3332 -0.0824
O 1.1125 2.9119 1.2621
O 2.9493 2.3631 -0.2482
C 0.6680 3.2800 -1.3389
C 1.4131 3.8606 -2.3729
C 0.7723 4.5925 -3.3770
C -0.6247 4.7488 -3.3643
C -1.3000 5.5203 -4.4308
O -2.5553 5.6345 -4.4387
O -0.5545 6.1276 -5.4375
C -1.3669 4.1603 -2.3244
C -0.7233 3.4325 -1.3198
C 0.1954 -0.2413 2.0014
C 1.6338 -0.3027 2.4689
C -0.8640 -0.6952 2.8292
C -0.6229 -1.2011 4.1266
C -1.6760 -1.6397 4.9289
C -2.9848 -1.5842 4.4599
C -3.2520 -1.0935 3.1826
C -2.2034 -0.6471 2.3499
H -3.5640 -0.0597 -2.8039
H -2.8185 -1.1818 -1.6199
H -4.6296 -1.1449 -1.8519
H -4.3305 -1.0767 0.4926
H -4.4460 0.5986 1.1032
H 1.8918 0.4535 -2.0485
H 0.3226 -0.3837 -1.9094
H 3.9266 -0.4654 -0.9474
H 5.0823 -2.4677 -0.1031
H 1.2997 -4.5247 0.1570
H 0.1576 -2.5388 -0.6875
H 2.4885 3.7464 -2.4076
H 1.3711 5.0318 -4.1647
H -1.0067 6.6569 -6.1734
H -2.4443 4.2619 -2.2865
H -1.3106 2.9859 -0.5275
H 1.7538 0.2986 3.3945
H 1.9166 -1.3580 2.6689
H 2.3513 0.0953 1.7247
H 0.3758 -1.2647 4.5362
H -1.4754 -2.0238 5.9210
H -3.7974 -1.9247 5.0888
H -4.2837 -1.0684 2.8594
*
