! B3LYP 6-31G* SP

* xyz 0 1
C -4.1490 1.3293 -0.9894
C -3.6564 -0.0378 -1.3631
C -2.6047 -0.6975 -0.7204
N -1.8311 -0.1711 0.3610
C -2.0291 -0.7000 1.7116
C -3.3862 -0.3051 2.2269
C -4.4054 -1.2607 2.3616
C -5.6714 -0.8800 2.8145
C -5.9499 0.4591 3.1139
O -7.2410 0.7839 3.5636
C -7.7146 2.1059 3.8171
F -6.9778 2.6972 4.8304
F -9.0374 2.0398 4.2087
F -7.6264 2.8704 2.6654
C -4.9326 1.4206 2.9587
C -3.6585 1.0367 2.5285
S -0.4555 0.8214 -0.0081
O 0.0206 1.5236 1.2342
O -0.8379 1.8545 -1.0309
C 0.8456 -0.2138 -0.6591
C 2.1608 0.5658 -0.7963
N 3.1098 -0.1267 -1.7004
C 4.1859 0.7730 -2.2012
C 5.5853 0.4695 -1.6274
C 5.4924 0.0508 -0.1512
C 6.8676 -0.1607 0.4576
C 7.7755 -1.0833 -0.1016
C 9.0338 -1.2773 0.4757
C 9.3984 -0.5610 1.6185
C 8.5032 0.3464 2.1908
C 7.2434 0.5460 1.6167
C 4.5999 -1.2005 0.0220
C 3.6271 -1.4034 -1.1562
S -2.4005 -2.2467 -1.3600
C -3.6494 -2.0948 -2.4716
C -4.0880 -3.0415 -3.3938
C -5.1699 -2.7111 -4.2217
C -5.7897 -1.4522 -4.1119
C -5.3313 -0.5106 -3.1752
C -4.2463 -0.8442 -2.3532
H -4.2499 1.9545 -1.9006
H -5.1366 1.2424 -0.4888
H -3.4478 1.8392 -0.2977
H -1.2548 -0.3125 2.4060
H -1.9158 -1.8054 1.6942
H -4.2191 -2.2991 2.1212
H -6.4437 -1.6300 2.9278
H -5.1066 2.4649 3.1777
H -2.8835 1.7869 2.4186
H 0.5255 -0.5951 -1.6533
H 0.9762 -1.0723 0.0330
H 2.6072 0.7337 0.2079
H 1.9069 1.5633 -1.2221
H 4.2343 0.6747 -3.3058
H 3.9560 1.8429 -2.0023
H 6.0503 -0.3416 -2.2290
H 6.2262 1.3734 -1.7271
H 4.9976 0.8930 0.3822
H 7.5091 -1.6606 -0.9781
H 9.7246 -1.9877 0.0381
H 10.3729 -0.7125 2.0641
H 8.7855 0.8943 3.0812
H 6.5627 1.2509 2.0800
H 5.2142 -2.1232 0.1162
H 4.0204 -1.1057 0.9666
H 2.8001 -2.0781 -0.8526
H 4.1587 -1.9443 -1.9710
H -3.6068 -4.0075 -3.4697
H -5.5309 -3.4274 -4.9473
H -6.6247 -1.2076 -4.7554
H -5.8176 0.4538 -3.0987
*
