! B3LYP 6-31G* SP

* xyz 0 1
O 2.0624 -0.8722 -1.2090
C 1.9725 -0.2779 -0.0995
N 0.7409 0.3691 0.2611
C -0.3714 0.5030 -0.6851
C -1.1256 -0.8080 -0.8191
C -1.6454 -1.1895 -2.0668
C -2.3682 -2.3780 -2.2020
C -2.6129 -3.1948 -1.0853
C -3.3505 -4.5010 -1.2398
F -2.4432 -5.5054 -1.5203
F -4.2715 -4.4246 -2.2703
F -4.0296 -4.8187 -0.0762
C -2.0855 -2.8192 0.1614
C -1.3626 -1.6311 0.2970
C -1.2922 1.6286 -0.2443
N -2.3121 1.3299 0.6115
C -3.1710 2.2661 1.0858
C -3.0271 3.5956 0.7070
C -1.9865 3.9535 -0.1471
C -1.0821 2.9846 -0.6241
C 0.0479 3.4039 -1.5463
F -0.1890 2.9176 -2.8190
F 0.1599 4.7818 -1.6238
F 1.2533 2.9105 -1.0812
C 3.1361 -0.2732 0.8185
C 4.1277 -1.2612 0.7101
C 5.2254 -1.2526 1.5710
C 5.3327 -0.2481 2.5348
O 6.3201 -0.2312 3.3173
N 4.3730 0.7135 2.6264
C 3.2929 0.7242 1.7974
H 0.5824 0.6385 1.2584
H 0.0492 0.7483 -1.6823
H -1.4869 -0.5682 -2.9396
H -2.7373 -2.6575 -3.1808
H -2.2345 -3.4438 1.0333
H -0.9886 -1.3553 1.2747
H -3.9680 1.9747 1.7568
H -3.7141 4.3459 1.0766
H -1.8918 4.9944 -0.4276
H 4.0489 -2.0456 -0.0325
H 5.9849 -2.0204 1.4879
H 4.4651 1.4674 3.3445
H 2.5723 1.5263 1.8902
*
