! B3LYP 6-31G* SP

* xyz 0 1
C -2.8430 -3.8832 -1.4176
C -2.2735 -2.5916 -1.9941
C -3.1439 -1.4206 -1.6383
S -4.4477 -0.9173 -2.5804
C -4.9035 0.3414 -1.5617
C -4.0541 0.3976 -0.4718
C -3.0616 -0.6199 -0.4850
C -1.9929 -0.8104 0.5686
C -0.7745 0.0182 0.2708
O -0.9124 1.1962 -0.1603
N 0.5324 -0.5081 0.5600
C 1.7680 0.1321 0.2080
N 2.9651 -0.3240 0.6317
C 4.0040 0.4211 0.1574
C 5.4118 0.1033 0.5173
C 5.6801 -0.8078 1.5539
C 6.9955 -1.1130 1.9149
C 8.0776 -0.5077 1.2532
C 9.5028 -0.8541 1.6163
F 10.2649 0.2982 1.6993
F 10.0343 -1.6784 0.6411
F 9.5715 -1.5046 2.8365
C 7.8143 0.3795 0.1942
F 8.8337 0.9448 -0.5019
C 6.4972 0.6847 -0.1651
C 3.6201 1.4886 -0.6622
S 1.9439 1.4785 -0.7861
C -4.2506 1.4247 0.4626
O -3.4720 1.5491 1.4471
N -5.2878 2.3106 0.2865
C -5.4819 3.4067 1.2532
C -6.0948 2.2314 -0.8292
O -6.9959 3.0990 -1.0121
N -5.9237 1.2249 -1.7491
C -6.7650 1.1372 -2.9534
H -2.1937 -4.7363 -1.7048
H -3.8645 -4.0654 -1.8163
H -2.8903 -3.8282 -0.3092
H -1.2388 -2.4342 -1.6230
H -2.2181 -2.6831 -3.0999
H -1.7086 -1.8816 0.6218
H -2.3761 -0.5676 1.5789
H 0.5955 -1.4143 1.0777
H 4.8715 -1.2844 2.0943
H 7.1617 -1.8247 2.7133
H 6.3393 1.3634 -0.9906
H 4.2657 2.2175 -1.1310
H -6.5512 3.7014 1.3200
H -4.8787 4.2869 0.9442
H -5.1804 3.0989 2.2779
H -7.0277 0.0797 -3.1691
H -7.7248 1.6818 -2.8293
H -6.2190 1.5632 -3.8214
*
