! B3LYP def2-TZVP SP

* xyz 0 1
O -7.2089 -1.5934 1.7945
C -6.1671 -2.1887 2.1848
O -6.2391 -3.0469 3.2816
C -4.8826 -1.9867 1.4798
C -4.8098 -1.1613 0.3434
C -3.5980 -0.9887 -0.3306
C -2.4405 -1.6336 0.1226
S -0.9074 -1.4174 -0.7161
O -1.1429 -0.9031 -2.1095
O -0.2093 -2.7457 -0.8209
N 0.0840 -0.2843 0.1588
C 1.1611 -0.8044 1.0111
C 2.3326 -1.3024 0.1967
C 2.7063 -0.6860 -1.0109
C 3.8062 -1.1543 -1.7359
C 4.5674 -2.2370 -1.2533
O 5.6786 -2.7512 -1.9415
C 6.1579 -2.2822 -3.1999
F 6.5450 -0.9582 -3.0990
F 7.2521 -3.0392 -3.5728
F 5.1743 -2.4146 -4.1642
C 4.2109 -2.8302 -0.0375
C 3.1075 -2.3660 0.6845
C -0.2342 1.1218 0.0960
C 0.7463 2.1087 0.2855
C 0.3941 3.4622 0.2102
C 1.3648 4.4587 0.3991
C 1.0115 5.8071 0.3225
C -0.3101 6.1721 0.0583
C -1.2867 5.1916 -0.1344
C -0.9464 3.8268 -0.0616
C -1.8959 2.8044 -0.2544
Br -3.7400 3.1574 -0.6395
N -1.5110 1.5042 -0.1734
C -2.5030 -2.4461 1.2609
C -3.7159 -2.6254 1.9331
H -7.1154 -3.1991 3.7654
H -5.6897 -0.6524 -0.0289
H -3.5651 -0.3504 -1.2041
H 0.7488 -1.6343 1.6263
H 1.5127 -0.0376 1.7326
H 2.1443 0.1508 -1.4037
H 4.0552 -0.6645 -2.6668
H 4.7939 -3.6566 0.3511
H 2.8569 -2.8401 1.6265
H 1.7772 1.8334 0.4683
H 2.3950 4.1947 0.6061
H 1.7633 6.5714 0.4696
H -0.5782 7.2191 -0.0002
H -2.2992 5.5113 -0.3401
H -1.6133 -2.9465 1.6248
H -3.7383 -3.2671 2.8053
*
