! B3LYP 6-31G* SP

* xyz 0 1
C 4.5132 -2.5192 -0.9932
O 5.1993 -1.3374 -1.3712
C 5.1497 -0.3034 -0.3843
C 5.9991 0.8521 -0.9471
C 3.7078 0.2408 -0.2391
C 2.8703 0.2323 -1.3776
C 1.5668 0.7269 -1.3229
C 1.0699 1.2790 -0.1381
C -0.3677 1.7101 -0.0456
N -1.1922 0.5875 0.4017
C -1.4233 -0.5194 -0.4771
N -2.2538 -0.3421 -1.5378
C -2.5114 -1.3259 -2.4319
C -1.9071 -2.5776 -2.2921
C -2.1648 -3.5952 -3.2234
C -1.5482 -4.8396 -3.0910
C -0.6743 -5.0780 -2.0308
C -0.4122 -4.0755 -1.0935
C -1.0249 -2.8078 -1.2065
C -0.7801 -1.7642 -0.2765
C 0.1690 -1.9659 0.8843
S -2.1039 0.7110 1.8723
O -1.1792 1.0704 3.0016
O -2.7518 -0.6080 2.1899
C -3.3523 1.9351 1.6763
C -4.4322 1.6915 0.8201
C -5.4269 2.6587 0.6477
C -5.3525 3.8870 1.3292
C -6.4078 4.9099 1.1589
O -7.3800 4.7019 0.3824
O -6.3437 6.1087 1.8631
C -4.2595 4.1288 2.1797
C -3.2650 3.1605 2.3491
C 1.8966 1.3365 0.9886
C 3.2056 0.8460 0.9419
F 3.9548 0.9789 2.0607
C 5.8203 -0.7998 0.9439
F 6.2892 0.2530 1.7132
F 4.9299 -1.5419 1.7016
F 6.9104 -1.6004 0.6450
H 4.2265 -3.0663 -1.9138
H 5.1841 -3.1842 -0.4106
H 3.5805 -2.3303 -0.4207
H 5.6272 1.1563 -1.9499
H 5.9571 1.7424 -0.2804
H 7.0608 0.5391 -1.0598
H 3.2216 -0.1711 -2.3188
H 0.9394 0.6660 -2.2038
H -0.4596 2.5640 0.6612
H -0.7311 2.0715 -1.0329
H -3.1840 -1.1245 -3.2564
H -2.8392 -3.4265 -4.0548
H -1.7475 -5.6211 -3.8126
H -0.1967 -6.0444 -1.9336
H 0.2717 -4.3056 -0.2878
H 1.1843 -2.1949 0.4997
H -0.1877 -2.8043 1.5180
H 0.2551 -1.0750 1.5361
H -4.5043 0.7516 0.2866
H -6.2541 2.4440 -0.0172
H -7.0637 6.8136 1.7581
H -4.1709 5.0662 2.7141
H -2.4300 3.3689 3.0055
H 1.5234 1.7593 1.9134
*
