! B3LYP 6-31G* SP

* xyz 0 1
O 6.7018 1.7485 0.5599
C 6.2727 0.6196 0.1974
O 7.1100 -0.4893 0.2895
C 4.8948 0.4725 -0.3206
C 4.0418 1.5869 -0.4190
C 2.7400 1.4414 -0.9066
C 2.2737 0.1836 -1.3078
S 0.6199 -0.0100 -1.8727
O 0.5630 -1.0684 -2.9389
O 0.1244 1.2792 -2.4669
N -0.3828 -0.4594 -0.5305
C -0.6032 -1.8682 -0.1995
C -2.0362 -2.2413 -0.4618
C -2.9962 -2.1239 0.5572
C -4.3371 -2.4240 0.2991
C -4.7300 -2.8343 -0.9783
F -6.0309 -3.1239 -1.2271
C -3.7820 -2.9407 -2.0003
C -2.4403 -2.6397 -1.7463
C -0.9619 0.5715 0.2756
N -2.0721 1.2183 -0.1690
C -2.6728 2.1999 0.5531
C -2.1609 2.5715 1.8063
C -2.7872 3.6934 2.5943
F -4.1441 3.7773 2.3340
F -2.6189 3.4863 3.9525
F -2.1863 4.8875 2.2425
C -0.9937 1.9409 2.2642
C -0.3924 0.9327 1.5067
Cl 1.0787 0.1719 2.0979
C 3.1140 -0.9310 -1.2046
C 4.4167 -0.7885 -0.7180
H 8.0551 -0.3997 0.6430
H 4.3781 2.5701 -0.1148
H 2.0938 2.3083 -0.9607
H -0.3452 -2.0509 0.8656
H 0.0690 -2.5181 -0.8002
H -2.7071 -1.7942 1.5476
H -5.0717 -2.3333 1.0887
H -4.0868 -3.2517 -2.9913
H -1.7182 -2.7161 -2.5494
H -3.5478 2.6897 0.1462
H -0.5470 2.2346 3.2061
H 2.7590 -1.9121 -1.4939
H 5.0464 -1.6665 -0.6490
*
