! B3LYP 6-31G* SP

* xyz 0 1
C 3.4399 1.7502 -1.5465
C 4.3744 0.7279 -0.9874
O 5.3898 0.2215 -1.6619
C 5.9757 -0.6624 -0.8883
C 5.3514 -0.7469 0.3176
C 4.3076 0.1626 0.2865
C 3.2405 0.3867 1.3196
C 2.1075 -0.5732 1.0973
O 2.2829 -1.7998 1.3242
N 0.8794 -0.1453 0.4970
C 0.1140 0.8125 0.9359
S 0.3201 1.6424 2.3881
C -1.0812 2.5487 2.1963
C -1.6810 2.1836 0.9917
C -2.9285 2.8303 0.5351
C -4.0742 2.7797 1.3311
C -5.2480 3.4060 0.9129
C -5.3069 4.1145 -0.2951
O -6.5518 4.7107 -0.5872
C -6.8904 5.6130 -1.6352
F -8.1826 6.0575 -1.4286
F -6.8467 4.9688 -2.8578
F -6.0478 6.7104 -1.6223
C -4.1358 4.1742 -1.1049
Cl -4.0294 4.9693 -2.6706
C -2.9622 3.5409 -0.6704
N -1.0162 1.2059 0.2939
C -1.4867 0.5614 -0.9414
O -1.8786 -0.7812 -0.6692
C -3.0668 -1.1099 -0.0090
O -3.9152 -0.2176 0.2700
C -3.3535 -2.5536 0.3188
N -3.7047 -2.6883 1.7376
C -4.4822 -3.1240 -0.5834
C -4.1155 -3.0243 -2.0760
C -4.7837 -4.5897 -0.2285
C 5.8026 -1.6503 1.2724
O 5.2338 -1.7290 2.3957
N 6.8814 -2.4468 0.9644
C 7.4054 -3.3940 1.9637
C 7.5221 -2.3114 -0.2558
O 8.5494 -3.0025 -0.5057
N 7.0518 -1.4304 -1.2038
C 7.7243 -1.2809 -2.5003
H 3.7199 1.9857 -2.5952
H 2.4016 1.3582 -1.5312
H 3.4946 2.6784 -0.9417
H 3.6530 0.2530 2.3405
H 2.8865 1.4347 1.2466
H -1.4467 3.2970 2.8863
H -4.0628 2.2458 2.2739
H -6.1270 3.3488 1.5444
H -2.0671 3.5988 -1.2787
H -0.6603 0.5469 -1.6847
H -2.3284 1.1059 -1.4111
H -2.4254 -3.1428 0.1377
H -4.5489 -2.1067 1.9489
H -2.9139 -2.3216 2.3170
H -5.4121 -2.5346 -0.4157
H -3.1447 -3.5310 -2.2705
H -4.8989 -3.5012 -2.7053
H -4.0383 -1.9615 -2.3878
H -3.8856 -5.2275 -0.3863
H -5.6123 -4.9732 -0.8617
H -5.1061 -4.6810 0.8322
H 8.2165 -2.9090 2.5475
H 6.6099 -3.7345 2.6611
H 7.8037 -4.3087 1.4739
H 7.0716 -0.7705 -3.2407
H 7.9812 -2.2766 -2.9203
H 8.6554 -0.6903 -2.3696
*
