! B3LYP 6-31G* SP

* xyz 0 1
C -0.5801 0.5574 1.9719
C -0.4087 1.9032 1.3236
C 0.1647 2.9498 2.0605
C 0.3350 4.2108 1.4788
C 0.9192 5.2695 2.1909
C 1.0802 6.5173 1.5798
C 0.6602 6.7139 0.2602
C 0.0761 5.6640 -0.4553
C -0.0891 4.4123 0.1487
N -0.6592 3.3915 -0.5423
C -0.8422 2.1586 0.0039
N -1.4355 1.1286 -0.7966
C -0.6988 0.5924 -1.9429
C 0.3776 -0.3432 -1.4655
C 0.1300 -1.7194 -1.3714
C 1.0990 -2.5760 -0.8476
C 2.3327 -2.0734 -0.4078
C 2.5777 -0.6809 -0.4693
C 1.6046 0.1679 -1.0178
C 3.9020 -0.0912 -0.0441
C 4.6880 -1.0197 0.8861
C 4.7330 -2.4352 0.3115
C 3.3211 -3.0226 0.2283
S -3.1191 0.7534 -0.5931
O -3.9139 1.4257 -1.6771
O -3.6036 1.2601 0.7370
C -3.3525 -0.9909 -0.6629
C -3.7026 -1.6088 -1.8702
C -3.8381 -2.9984 -1.9376
C -3.6241 -3.7915 -0.7958
C -3.7571 -5.2633 -0.8629
O -4.0649 -5.8281 -1.9474
O -3.5426 -6.0399 0.2729
C -3.2784 -3.1646 0.4138
C -3.1451 -1.7749 0.4785
H 0.2434 0.3646 2.6919
H -0.5602 -0.2591 1.2226
H -1.5456 0.5311 2.5174
H 0.4845 2.7778 3.0822
H 1.2506 5.1321 3.2132
H 1.5315 7.3331 2.1294
H 0.7873 7.6813 -0.2083
H -0.2470 5.8250 -1.4764
H -1.3875 0.0585 -2.6322
H -0.2517 1.4252 -2.5285
H -0.8170 -2.1309 -1.6945
H 0.8822 -3.6347 -0.7733
H 1.7958 1.2331 -1.0797
H 4.5066 0.1104 -0.9549
H 3.7353 0.8763 0.4781
H 5.7236 -0.6333 1.0014
H 4.2122 -1.0359 1.8917
H 5.3614 -3.0800 0.9631
H 5.1932 -2.4162 -0.7012
H 2.9663 -3.2653 1.2535
H 3.3634 -3.9696 -0.3525
H -3.8566 -1.0180 -2.7641
H -4.1036 -3.4513 -2.8846
H -3.6308 -7.0485 0.2379
H -3.1074 -3.7469 1.3104
H -2.8756 -1.3133 1.4186
*
