! B3LYP 6-31G* SP

* xyz 0 1
C -1.5656 -2.6609 -3.6978
C -2.0223 -2.5986 -2.2574
C -1.9095 -1.3960 -1.5174
N -1.2365 -0.2440 -2.0505
C 0.2150 -0.2696 -2.2654
C 0.9474 0.1767 -1.0273
C 1.6509 1.3873 -1.0125
C 2.2952 1.8152 0.1491
C 2.2508 1.0466 1.3295
C 3.0265 1.5373 2.5424
F 2.4530 1.0895 3.7219
F 2.9923 2.9223 2.5866
C 4.4988 1.1058 2.4054
C 5.3227 1.1506 3.6812
C 4.9207 -0.1896 3.0846
C 1.5753 -0.2014 1.2966
Cl 1.5092 -1.3005 2.6713
C 0.9286 -0.6168 0.1266
S -2.0903 1.2686 -2.1479
O -3.5582 1.0489 -1.9042
O -1.9182 1.8357 -3.5294
C -1.4720 2.3891 -0.9362
C -1.5537 2.0569 0.4226
C -0.9837 2.8890 1.3873
C -0.3288 4.0741 1.0072
C 0.2941 4.9487 2.0243
O 0.2932 4.6166 3.2399
O 0.8962 6.1453 1.6448
C -0.2677 4.4142 -0.3557
C -0.8348 3.5770 -1.3203
N -2.4242 -1.3233 -0.2625
C -3.0223 -2.3760 0.3452
C -3.1082 -3.6068 -0.3077
C -3.6979 -4.7081 0.3326
C -3.7654 -5.9425 -0.3138
C -3.2464 -6.0868 -1.6002
C -2.6644 -4.9960 -2.2534
C -2.5931 -3.7337 -1.6220
H -2.3531 -3.1225 -4.3297
H -1.3810 -1.6545 -4.1265
H -0.6323 -3.2589 -3.7690
H 0.4697 0.3773 -3.1323
H 0.5524 -1.2952 -2.5265
H 1.6907 2.0106 -1.8980
H 2.8350 2.7539 0.1229
H 5.0644 1.3724 1.4869
H 6.3916 1.4008 3.5354
H 4.7843 1.3896 4.6261
H 4.1707 -0.7192 3.7072
H 5.7610 -0.7271 2.5923
H 0.4138 -1.5694 0.1148
H -2.0393 1.1409 0.7331
H -1.0448 2.5994 2.4289
H 1.3142 6.7618 2.3344
H 0.2329 5.3186 -0.6792
H -0.7497 3.8423 -2.3668
H -3.4119 -2.2517 1.3476
H -4.1024 -4.6149 1.3336
H -4.2161 -6.7908 0.1861
H -3.2932 -7.0497 -2.0940
H -2.2635 -5.1583 -3.2449
*
