! B3LYP 6-31G* SP

* xyz 0 1
O 6.9461 0.0534 -0.3192
C 6.1844 -0.8859 0.0383
O 6.6882 -2.1822 0.1088
C 4.7700 -0.6161 0.3798
C 3.9198 -1.6680 0.7644
C 2.5826 -1.4166 1.0853
C 2.0755 -0.1122 1.0242
S 0.3824 0.2125 1.3797
O 0.3070 1.3973 2.3027
O -0.2515 -0.9698 2.0574
N -0.4675 0.5607 -0.0950
C -0.2433 -0.2773 -1.2766
C -0.8140 -1.6470 -1.0583
C -2.2002 -1.8576 -1.1025
C -2.7065 -3.1332 -0.8445
C -1.8326 -4.1810 -0.5451
C -0.4580 -3.9339 -0.5051
N 0.0161 -2.6843 -0.7566
C -1.5891 1.4523 -0.0505
N -2.6061 1.2035 0.8190
C -3.7008 2.0048 0.8995
C -3.8201 3.1263 0.0646
C -5.0066 4.0489 0.1808
F -5.2618 4.6710 -1.0283
F -4.7440 5.0123 1.1363
F -6.1383 3.3432 0.5515
C -2.7611 3.4257 -0.8066
C -1.6435 2.5892 -0.8739
Cl -0.3081 3.0233 -1.9342
C 2.9145 0.9380 0.6360
C 4.2531 0.6911 0.3193
H 7.6539 -2.3799 -0.1258
H 4.2862 -2.6862 0.8168
H 1.9449 -2.2423 1.3738
H -0.7164 0.1743 -2.1757
H 0.8460 -0.3452 -1.4847
H -2.8783 -1.0426 -1.3268
H -3.7750 -3.3086 -0.8736
H -2.2166 -5.1727 -0.3408
H 0.2309 -4.7334 -0.2677
H -4.4756 1.7653 1.6166
H -2.7977 4.3127 -1.4272
H 2.5300 1.9482 0.5729
H 4.8810 1.5221 0.0225
*
