! B3LYP 6-31G* SP

* xyz 0 1
O 2.3447 2.5270 1.0074
C 1.7314 1.6366 0.3605
C 0.3542 1.8061 -0.2078
C -0.7120 2.1187 0.8544
C -2.0591 1.8713 0.2466
C -2.2993 0.9432 -0.7560
N -3.6169 0.8817 -1.0563
C -4.2111 1.7662 -0.2314
C -5.5729 2.0499 -0.1390
C -5.9846 2.9964 0.8175
C -5.0381 3.6278 1.6556
C -3.6696 3.3204 1.5454
C -3.2916 2.3843 0.5847
C -1.2235 0.0676 -1.3439
C -1.5070 -1.3729 -0.9730
C -1.8309 -2.3105 -1.9689
C -2.1004 -3.6391 -1.6267
C -2.0530 -4.0427 -0.2895
F -2.3147 -5.3317 0.0394
C -1.7377 -3.1171 0.7088
C -1.4680 -1.7878 0.3717
N 0.0942 0.5021 -0.8369
C 1.2914 -0.2707 -0.7457
O 1.4167 -1.4240 -1.2380
N 2.3097 0.3837 -0.0013
C 3.6006 -0.1332 0.3665
C 4.1303 0.1194 1.6415
C 5.3884 -0.3736 1.9927
C 6.1270 -1.1295 1.0801
C 5.6040 -1.4167 -0.1921
C 6.4213 -2.1872 -1.1986
F 7.2685 -3.0787 -0.5634
F 5.5973 -2.9049 -2.0483
F 7.1765 -1.3019 -1.9448
C 4.3478 -0.8940 -0.5484
H 0.3651 2.5983 -0.9883
H -0.5893 1.4534 1.7364
H -0.6239 3.1776 1.1784
H -4.0775 0.2571 -1.7553
H -6.2921 1.5562 -0.7797
H -7.0347 3.2397 0.9143
H -5.3683 4.3514 2.3895
H -2.9388 3.7956 2.1867
H -1.2309 0.1947 -2.4479
H -1.8745 -2.0150 -3.0097
H -2.3469 -4.3555 -2.3997
H -1.7026 -3.4285 1.7448
H -1.2260 -1.0815 1.1560
H 3.5656 0.6859 2.3701
H 5.7929 -0.1681 2.9755
H 7.1072 -1.4878 1.3685
H 3.9610 -1.0596 -1.5457
*
