! B3LYP 6-31G* SP

* xyz 0 1
C 5.7996 0.1014 -0.6572
C 4.8446 0.3331 0.5027
O 3.5029 0.1758 0.0537
C 2.4007 0.3287 0.8998
O 2.5648 0.6178 2.1164
C 1.0410 0.1523 0.3714
S -0.3772 0.3035 1.2638
C -1.3811 -0.0412 -0.0494
C -2.8610 -0.0922 -0.0176
C -3.5693 0.1565 1.1736
C -4.9667 0.1051 1.1901
C -5.6715 -0.1940 0.0223
C -4.9803 -0.4425 -1.1653
C -3.5830 -0.3926 -1.1878
N -0.6508 -0.2716 -1.1658
C 0.6861 -0.1656 -0.9370
O 1.6186 -0.3640 -1.9501
H 5.6685 -0.9265 -1.0568
H 5.5989 0.8356 -1.4660
H 6.8474 0.2234 -0.3105
H 4.9900 1.3617 0.8985
H 5.0597 -0.4023 1.3082
H -3.0489 0.3906 2.0930
H -5.5037 0.2975 2.1101
H -6.7530 -0.2332 0.0376
H -5.5274 -0.6743 -2.0700
H -3.0693 -0.5889 -2.1205
H 1.3205 -0.5942 -2.8902
*
