! B3LYP 6-31G* SP

* xyz 0 1
C -2.2213 0.0439 4.1559
C -2.6447 0.1364 2.7266
O -3.2322 1.1986 2.2081
C -3.4483 0.9477 0.9376
C -3.0061 -0.2942 0.6021
C -2.4852 -0.8534 1.7556
C -1.7945 -2.1788 1.9102
C -0.3969 -2.0975 1.3736
O 0.4345 -1.3330 1.9343
N -0.0103 -2.8903 0.2404
C 1.1900 -2.6632 -0.5076
N 2.0323 -1.6314 -0.2906
C 3.0723 -1.6208 -1.1712
C 4.1134 -0.5591 -1.1237
C 5.3060 -0.6639 -1.8640
C 6.2665 0.3473 -1.8064
C 6.0589 1.4749 -1.0099
F 7.0100 2.4432 -0.9726
C 4.8803 1.6023 -0.2547
C 4.6715 2.8289 0.6028
F 3.4621 2.7884 1.2754
F 4.6910 3.9584 -0.1956
F 5.6889 2.9179 1.5362
C 3.9145 0.5792 -0.3172
C 3.0432 -2.6623 -2.1065
S 1.6796 -3.6023 -1.8079
C -3.1296 -0.7479 -0.7049
O -2.7361 -1.9051 -1.0175
N -3.6953 0.0892 -1.6396
C -3.8679 -0.3724 -3.0272
C -4.1682 1.3352 -1.2637
O -4.7394 2.0742 -2.1155
N -4.0272 1.7803 0.0319
C -4.5239 3.1025 0.4333
H -2.4275 1.0026 4.6771
H -2.7849 -0.7692 4.6592
H -1.1338 -0.1709 4.2125
H -2.3755 -2.9612 1.3797
H -1.7562 -2.4700 2.9809
H -0.6510 -3.6480 -0.0862
H 5.5123 -1.5272 -2.4798
H 7.1793 0.2540 -2.3804
H 3.0008 0.6713 0.2553
H 3.7449 -2.8385 -2.9091
H -4.8645 -0.8491 -3.1396
H -3.0806 -1.1011 -3.3130
H -3.7858 0.4735 -3.7428
H -5.6340 3.1052 0.4146
H -4.1874 3.3767 1.4558
H -4.1440 3.8792 -0.2643
*
