! B3LYP 6-31G* SP

* xyz 0 1
O 2.2639 -1.9763 -1.5233
C 1.5088 -1.0125 -0.8571
N 0.1758 -1.2024 -0.6627
C -0.4065 -0.1761 -0.0019
C -1.8478 -0.1342 0.3366
C -2.3983 0.9623 1.0271
C -3.7607 0.9896 1.3407
C -4.5874 -0.0732 0.9704
C -4.0534 -1.1668 0.2851
F -4.8568 -2.1983 -0.0740
C -2.6912 -1.1992 -0.0311
S 0.7284 1.0130 0.3658
C 2.0145 0.1913 -0.3435
C 3.3934 0.7112 -0.3769
N 3.7573 1.8946 0.1575
N 5.0555 1.9920 -0.0775
N 5.4583 0.9136 -0.7260
N 4.4486 0.0871 -0.9330
H 3.2544 -1.8850 -1.6936
H -1.7812 1.7993 1.3262
H -4.1760 1.8365 1.8718
H -5.6415 -0.0482 1.2151
H -2.2984 -2.0569 -0.5629
H 6.4403 0.7386 -1.0329
*
