! B3LYP 6-31G* SP

* xyz 0 1
C -1.1955 0.8409 3.1839
C -2.0991 -0.1365 2.4385
N -1.4630 -0.6237 1.2016
C -0.5294 -1.7138 1.3099
O -0.8974 -2.8721 0.9696
C 0.8514 -1.5106 1.8078
C 1.4724 -2.5458 2.5288
C 2.7815 -2.4052 2.9897
C 3.4907 -1.2345 2.7293
C 2.8959 -0.2011 2.0040
C 1.5741 -0.3273 1.5297
O 0.9610 0.6897 0.7793
C 1.6224 1.8287 0.2280
C 2.4902 1.4171 -0.9289
C 1.9244 0.7367 -2.0183
C 2.7229 0.3433 -3.0955
C 4.0906 0.6270 -3.0945
C 4.6637 1.3112 -2.0146
C 6.0711 1.6127 -2.0176
N 7.2023 1.8571 -2.0195
C 3.8642 1.7068 -0.9347
C -2.0605 -0.3619 -0.1233
C -2.1640 1.1563 -0.4266
C -3.2683 1.4942 -1.4469
C -3.4958 0.3447 -2.4343
C -3.9760 -0.9430 -1.7171
N -3.5877 -2.1187 -2.5005
C -3.4272 -1.0594 -0.2702
H -1.7470 1.2694 4.0471
H -0.2960 0.3222 3.5732
H -0.8868 1.6710 2.5148
H -3.0585 0.3779 2.2163
H -2.3411 -0.9956 3.1032
H 0.9389 -3.4635 2.7445
H 3.2470 -3.2068 3.5495
H 4.5061 -1.1275 3.0882
H 3.4772 0.6901 1.8201
H 0.8558 2.5376 -0.1456
H 2.1903 2.3677 1.0149
H 0.8663 0.5080 -2.0318
H 2.2817 -0.1847 -3.9303
H 4.6998 0.3171 -3.9346
H 4.3102 2.2377 -0.1017
H -1.3901 -0.7950 -0.9026
H -1.1900 1.4994 -0.8322
H -2.3544 1.7470 0.4920
H -2.9882 2.4137 -2.0037
H -4.2193 1.7036 -0.9115
H -4.2498 0.6504 -3.1909
H -2.5428 0.1510 -2.9742
H -5.0882 -0.9095 -1.6552
H -4.0543 -2.9589 -2.0879
H -3.9817 -2.0191 -3.4648
H -4.1574 -0.5886 0.4235
H -3.3428 -2.1270 0.0295
*
