! B3LYP 6-31G* SP

* xyz 0 1
C -0.9714 -1.3037 -2.0011
C -0.5606 -1.8139 -0.6092
C -1.1439 -3.1707 -0.2397
C -2.3991 -3.6046 -0.7177
C -2.9214 -4.8396 -0.3232
C -2.2103 -5.6524 0.5609
F -2.7212 -6.8486 0.9431
C -0.9764 -5.2291 1.0574
C -0.4463 -3.9948 0.6683
F 0.7477 -3.6030 1.1817
N -0.8688 -0.8223 0.4391
C -2.2509 -0.4112 0.7228
C -2.4017 1.0616 0.4800
C -2.3804 1.9729 1.5447
C -2.4631 3.3396 1.2761
C -2.5541 3.7865 -0.0432
C -2.5592 2.8507 -1.0889
C -2.6369 3.2811 -2.4948
O -2.6365 2.4213 -3.4165
O -2.7076 4.6335 -2.8166
N -2.4799 1.5228 -0.7982
C 0.1733 -0.3773 1.3273
O 0.0121 -0.4875 2.5733
C 1.4047 0.2448 0.7972
C 2.5095 0.4890 1.6292
C 3.6536 1.0988 1.0978
C 4.7739 1.3550 1.9041
C 5.9058 1.9671 1.3571
C 5.9291 2.3241 0.0054
C 4.8192 2.0746 -0.8072
C 3.6781 1.4626 -0.2672
C 2.5529 1.2044 -1.0585
N 1.4585 0.6131 -0.5123
H -0.7566 -2.0783 -2.7676
H -0.3879 -0.3945 -2.2556
H -2.0457 -1.0367 -2.0511
H 0.5427 -1.9477 -0.6757
H -2.9848 -2.9971 -1.3925
H -3.8826 -5.1638 -0.7013
H -0.4303 -5.8565 1.7503
H -2.5141 -0.6702 1.7715
H -2.9721 -0.9529 0.0774
H -2.2944 1.6301 2.5683
H -2.4503 4.0530 2.0902
H -2.6133 4.8492 -0.2420
H -2.7622 4.9360 -3.7820
H 2.4812 0.2062 2.6753
H 4.7729 1.0854 2.9537
H 6.7676 2.1645 1.9818
H 6.8088 2.7963 -0.4125
H 4.8520 2.3590 -1.8519
H 2.5402 1.4730 -2.1075
*
