! B3LYP 6-31G* SP

* xyz 0 1
O 2.3373 1.0617 1.8197
C 1.8772 0.3628 0.8758
N 2.7582 -0.1721 -0.1276
C 4.1871 -0.0148 -0.1126
C 4.9230 -0.0962 1.0819
C 6.3148 0.0351 1.0650
C 6.9996 0.2169 -0.1486
C 8.4954 0.4087 -0.1609
F 9.0870 -0.2934 0.8751
F 8.7827 1.7529 -0.0157
F 9.0367 -0.0420 -1.3526
C 6.2609 0.2999 -1.3411
C 4.8696 0.1671 -1.3232
N 0.4633 0.1097 0.8094
C -0.3053 -0.0183 2.0513
C -1.4286 -1.0456 1.8734
C -2.3022 -0.7354 0.6368
C -1.3970 -0.6361 -0.6178
C -0.2785 0.3927 -0.4242
C -3.3612 -1.8531 0.4717
C -4.3937 -1.5295 -0.6245
O -5.4681 -2.4278 -0.4964
C -4.8930 -0.1019 -0.5228
C -6.0553 0.2968 -1.2070
C -6.5019 1.6190 -1.1312
C -5.7870 2.5588 -0.3861
C -4.6153 2.1827 0.2753
F -3.9160 3.1050 0.9825
C -4.1557 0.8628 0.1964
O -2.9678 0.5134 0.8476
H 2.3391 -0.6627 -0.9484
H 4.4292 -0.2842 2.0256
H 6.8565 -0.0130 2.0014
H 6.7589 0.4675 -2.2878
H 4.3187 0.2228 -2.2538
H 0.3514 -0.3567 2.8829
H -0.7318 0.9707 2.3270
H -0.9734 -2.0557 1.7684
H -2.0577 -1.0500 2.7905
H -1.9922 -0.3343 -1.5054
H -0.9393 -1.6269 -0.8331
H 0.3847 0.3731 -1.3133
H -0.7149 1.4134 -0.3611
H -2.8677 -2.8222 0.2376
H -3.9029 -1.9795 1.4363
H -3.9020 -1.6570 -1.6176
H -5.7649 -2.6689 -1.4128
H -6.6186 -0.4134 -1.7985
H -7.4025 1.9158 -1.6530
H -6.1371 3.5814 -0.3291
*
