! B3LYP 6-31G* SP

* xyz 0 1
O -1.6492 1.3588 2.2458
C -1.2253 0.5320 1.3941
C 0.1172 0.7220 0.8069
S 1.1406 -0.5215 0.3147
C 2.4058 0.5088 -0.1053
C 3.7180 0.0926 -0.6515
C 4.0123 -1.2662 -0.8733
C 5.2549 -1.6461 -1.3900
C 6.2153 -0.6780 -1.6906
C 5.9355 0.6734 -1.4752
F 6.8687 1.6126 -1.7674
C 4.6942 1.0588 -0.9586
N 2.0677 1.7981 0.1251
C 0.8096 1.9260 0.6260
O 0.2813 3.1866 0.8985
N -2.0492 -0.5915 1.0237
C -3.2582 -0.9272 1.7759
C -4.4641 -0.1107 1.2870
C -4.4376 0.2574 -0.2113
C -3.8688 -0.8423 -1.1285
C -2.3275 -0.8181 -1.1863
O -1.7263 -1.3803 -0.0385
H 3.2868 -2.0373 -0.6497
H 5.4731 -2.6929 -1.5576
H 7.1760 -0.9761 -2.0904
H 4.4985 2.1119 -0.7995
H -0.6768 3.3253 1.1900
H -3.4800 -2.0084 1.6385
H -3.0972 -0.7692 2.8645
H -4.5254 0.8303 1.8758
H -5.3896 -0.6882 1.5032
H -5.4803 0.4788 -0.5273
H -3.8618 1.1990 -0.3501
H -4.2315 -1.8455 -0.8161
H -4.2488 -0.6603 -2.1574
H -2.0096 -1.4252 -2.0600
H -1.9484 0.2128 -1.3693
*
