! B3LYP 6-31G* SP

* xyz 0 1
C 0.2499 2.2674 -2.0610
C -0.2391 1.3801 -0.9038
C 0.2670 1.8491 0.4528
C -0.5871 1.7770 1.5691
C -0.1271 2.1302 2.8408
F -0.9594 2.0492 3.9080
C 1.1918 2.5534 3.0164
C 2.0530 2.6300 1.9189
Cl 3.7188 3.1300 2.1452
C 1.5944 2.2866 0.6430
N 0.0809 -0.0492 -1.1528
C 1.4739 -0.4362 -1.1336
O 2.1019 -0.5070 -2.2256
C 2.1752 -0.7629 0.1335
C 1.4581 -1.0058 1.3192
C 2.1312 -1.2742 2.5142
C 3.5264 -1.3128 2.5388
C 4.2508 -1.0855 1.3670
C 3.5816 -0.8149 0.1696
C -0.8506 -0.8367 -2.0027
C -0.4379 -2.2870 -2.1479
N -0.2812 -3.1357 -1.0094
O -0.2400 -2.7603 -3.2989
C -2.2863 -0.7827 -1.5095
C -3.3368 -0.6698 -2.4386
C -4.6661 -0.6417 -2.0064
C -4.9621 -0.7349 -0.6448
C -3.9295 -0.8618 0.2866
C -2.5992 -0.8926 -0.1411
H 0.0575 3.3375 -1.8312
H -0.3009 2.0120 -2.9907
H 1.3328 2.1294 -2.2561
H -1.3415 1.5182 -0.8949
H -1.6083 1.4355 1.4576
H 1.5463 2.8148 4.0052
H 2.2876 2.3279 -0.1857
H 0.3796 -0.9751 1.3302
H 1.5696 -1.4496 3.4228
H 4.0461 -1.5189 3.4655
H 5.3326 -1.1147 1.3868
H 4.1652 -0.6288 -0.7232
H -0.8147 -0.3843 -3.0193
H -0.4428 -2.7832 -0.0426
H 0.0035 -4.1323 -1.1349
H -3.1276 -0.6033 -3.4991
H -5.4674 -0.5497 -2.7282
H -5.9917 -0.7122 -0.3118
H -4.1596 -0.9368 1.3415
H -1.8186 -0.9877 0.5978
*
