! B3LYP 6-31G* SP

* xyz 0 1
C 5.2576 1.5864 0.1235
C 4.7011 0.1676 0.0629
N 3.2382 0.1764 0.0567
C 2.4867 -1.0453 0.0034
O 3.0922 -2.1507 -0.0392
C 1.0103 -1.0241 -0.0023
S 0.0422 0.3527 0.0498
C -1.4069 -0.5103 0.0080
C -2.7662 0.0774 0.0260
C -3.8980 -0.7584 -0.0133
C -5.1844 -0.2106 0.0035
C -5.3559 1.1741 0.0594
C -4.2411 2.0141 0.0988
C -2.9521 1.4719 0.0823
N -1.1699 -1.8415 -0.0455
C 0.1601 -2.1287 -0.0513
O 0.6219 -3.4400 -0.1030
H 6.3674 1.5524 0.1270
H 4.9118 2.0931 1.0495
H 4.9199 2.1673 -0.7611
H 5.0720 -0.3281 -0.8602
H 5.0639 -0.4021 0.9456
H 2.7303 1.0890 0.0918
H -3.7901 -1.8349 -0.0569
H -6.0492 -0.8609 -0.0270
H -6.3526 1.5961 0.0723
H -4.3753 3.0873 0.1422
H -2.1063 2.1461 0.1137
H -0.0275 -4.2164 -0.1377
*
