! B3LYP 6-31G* SP

* xyz 0 1
C -5.3585 -0.0097 -1.1990
C -4.4831 -0.1251 0.0536
N -3.0915 -0.3677 -0.3388
C -1.9760 0.2172 0.3481
O -2.1677 1.0297 1.2940
N -0.6404 -0.1256 -0.0470
C 0.5435 0.4954 0.5592
C 1.7364 -0.4563 0.5666
C 1.5414 -1.8479 0.6656
C 2.6313 -2.7200 0.7331
C 3.9441 -2.2237 0.7170
C 5.1175 -3.1627 0.8401
F 4.8309 -4.3823 0.2515
F 5.4015 -3.3636 2.1779
F 6.2341 -2.6333 0.2163
C 4.1440 -0.8347 0.6957
C 3.0549 0.0383 0.6287
C 0.8307 1.7943 -0.1602
N 0.7466 2.9660 0.5302
C 0.9856 4.1686 -0.0573
C 1.3276 4.2308 -1.4091
C 1.4197 3.0488 -2.1448
C 1.1704 1.8218 -1.5263
F 1.2687 0.6764 -2.2472
C -4.9702 -1.2497 0.9799
F -4.1738 -1.3015 2.1099
F -4.9080 -2.4718 0.3326
F -6.2758 -1.0118 1.3722
H -5.3431 -0.9564 -1.7804
H -6.4072 0.2255 -0.9189
H -4.9801 0.8100 -1.8463
H -4.5616 0.8402 0.6009
H -2.8973 -1.0953 -1.0640
H -0.5193 -0.7190 -0.8993
H 0.3278 0.7189 1.6276
H 0.5443 -2.2673 0.7026
H 2.4464 -3.7842 0.8095
H 5.1440 -0.4218 0.7420
H 3.2484 1.1033 0.6332
H 0.9094 5.0766 0.5256
H 1.5192 5.1855 -1.8814
H 1.6850 3.0844 -3.1936
*
