! B3LYP 6-31G* SP

* xyz 0 1
C -1.6113 -2.3769 -1.6580
C -2.7464 -1.6143 -1.0545
O -3.7753 -1.1688 -1.7504
C -4.5712 -0.5388 -0.9176
C -4.0723 -0.5600 0.3486
C -2.8851 -1.2714 0.2913
C -1.9106 -1.5478 1.3994
C -0.8652 -0.4757 1.4476
O -1.1757 0.6662 1.8831
N 0.4714 -0.7524 1.0032
C 1.4714 0.2473 0.7650
N 2.7713 -0.0605 0.5755
C 3.5301 1.0396 0.3063
C 4.9945 0.9296 0.0792
C 5.6822 -0.2225 0.4973
C 7.0599 -0.3464 0.3011
F 7.6833 -1.4590 0.7706
C 7.7823 0.6706 -0.3563
C 9.2831 0.5701 -0.5407
F 9.6701 1.1580 -1.7332
F 9.9147 1.2195 0.5038
F 9.7028 -0.7470 -0.5684
C 7.0966 1.8357 -0.7558
F 7.7589 2.8668 -1.3400
C 5.7197 1.9579 -0.5471
C 2.8147 2.2419 0.2754
S 1.1984 1.8994 0.5894
C -4.7570 0.0786 1.3762
O -4.2846 0.0921 2.5452
N -5.9524 0.6963 1.0838
C -6.7031 1.3980 2.1388
C -6.4288 0.7141 -0.2155
O -7.5045 1.3228 -0.4817
N -5.7427 0.0792 -1.2260
C -6.2438 0.1014 -2.6068
H -1.7336 -2.4301 -2.7597
H -1.5893 -3.4089 -1.2442
H -0.6499 -1.8666 -1.4323
H -2.4345 -1.6027 2.3745
H -1.4398 -2.5400 1.2359
H 0.7463 -1.7487 0.8531
H 5.1560 -1.0251 0.9991
H 5.2285 2.8576 -0.8901
H 3.2114 3.2311 0.0919
H -6.4927 2.4857 2.0866
H -6.4414 1.0270 3.1508
H -7.7941 1.2332 2.0177
H -7.3031 -0.2374 -2.6323
H -5.6619 -0.5744 -3.2677
H -6.1775 1.1319 -3.0122
*
