! B3LYP 6-31G* SP

* xyz -1 1
C -2.9219 1.1276 2.2868
C -2.5685 1.5740 0.8966
N -1.7062 0.8079 0.1843
C -1.3126 1.1063 -1.0782
N -0.3653 0.2425 -1.7215
C 1.0092 0.6988 -1.9556
C 1.9464 0.1043 -0.9385
C 1.8009 0.4165 0.4217
C 2.6103 -0.1999 1.3798
C 3.5932 -1.1291 0.9867
O 4.4173 -1.7974 1.9062
C 4.3561 -1.6506 3.3235
F 4.6337 -0.3429 3.6798
F 3.1028 -2.0098 3.7864
F 5.2984 -2.4796 3.9009
C 3.7589 -1.4106 -0.3743
C 2.9436 -0.8011 -1.3315
S -0.8023 -1.4116 -2.0344
O -2.2883 -1.5845 -1.8856
O -0.4267 -1.7553 -3.4489
C 0.0152 -2.4870 -0.9016
C -0.2358 -2.3753 0.4707
C 0.4587 -3.1737 1.3837
C 1.4120 -4.1033 0.9350
C 2.1613 -4.9324 1.9042
O 3.0372 -5.7466 1.5083
O 1.9103 -4.8235 3.2671
C 1.6460 -4.2264 -0.4462
C 0.9511 -3.4252 -1.3569
C -1.8311 2.2480 -1.7281
C -1.4717 2.5373 -3.1700
C -2.7022 3.1032 -1.0028
C -3.2043 4.2994 -1.5646
C -4.0710 5.1193 -0.8409
C -4.4512 4.7703 0.4517
C -3.9629 3.6016 1.0349
C -3.0834 2.7575 0.3238
H -2.4119 0.1709 2.5311
H -4.0174 0.9662 2.3660
H -2.5982 1.8912 3.0247
H 1.0687 1.8070 -1.8880
H 1.3133 0.4230 -2.9884
H 1.0465 1.1225 0.7435
H 2.4577 0.0500 2.4200
H 4.5139 -2.1199 -0.6905
H 3.0736 -1.0573 -2.3756
H -0.9588 -1.6608 0.8383
H 0.2552 -3.0557 2.4406
H 2.3753 -4.9326 -0.8235
H 1.1631 -3.5235 -2.4133
H -0.8026 3.4219 -3.2180
H -0.9657 1.6841 -3.6649
H -2.3915 2.7312 -3.7606
H -2.9281 4.6207 -2.5594
H -4.4479 6.0319 -1.2853
H -5.1246 5.4105 1.0072
H -4.2780 3.3701 2.0435
*
