! B3LYP 6-31G* SP

* xyz -1 1
C -1.4382 1.1754 -1.4115
C -0.5097 1.5863 -0.2897
C 0.4389 0.6755 0.2330
N 0.5604 -0.6533 -0.2875
C 0.0952 -1.7894 0.5075
C -1.3992 -1.8128 0.5301
C -2.2010 -1.0690 1.3962
C -3.5594 -1.1783 1.0852
C -4.6113 -0.5473 1.7542
C -5.9238 -0.7528 1.2962
C -6.1698 -1.5776 0.1808
C -5.1056 -2.2030 -0.4874
C -3.8141 -1.9867 -0.0133
S -2.3676 -2.5765 -0.6285
S 1.5280 -0.9240 -1.7013
O 1.7121 0.3638 -2.4552
O 0.8317 -1.9054 -2.6025
C 3.1005 -1.5397 -1.2095
C 4.0218 -0.6801 -0.5999
C 5.2657 -1.1619 -0.1822
C 5.6036 -2.5151 -0.3657
C 6.9180 -3.0311 0.0755
O 7.7538 -2.2669 0.6276
O 7.2489 -4.3683 -0.1127
C 4.6709 -3.3742 -0.9731
C 3.4271 -2.8897 -1.3891
N 1.2449 1.0444 1.2625
C 1.1910 2.2761 1.8233
C 0.2788 3.2230 1.3517
C 0.2183 4.4985 1.9339
C -0.6978 5.4407 1.4657
C -1.5583 5.1185 0.4166
C -1.5089 3.8523 -0.1728
C -0.5884 2.8825 0.2832
H -1.2932 1.8473 -2.2833
H -1.2657 0.1391 -1.7612
H -2.4914 1.2361 -1.0647
H 0.4899 -1.7129 1.5438
H 0.4676 -2.7443 0.0778
H -1.8120 -0.4537 2.1979
H -4.4231 0.0905 2.6088
H -6.7508 -0.2723 1.8025
H -7.1843 -1.7268 -0.1652
H -5.2847 -2.8324 -1.3493
H 3.7753 0.3631 -0.4446
H 5.9609 -0.4759 0.2857
H 4.8996 -4.4217 -1.1246
H 2.7204 -3.5702 -1.8461
H 1.8615 2.5120 2.6403
H 0.8781 4.7652 2.7511
H -0.7415 6.4231 1.9180
H -2.2677 5.8530 0.0577
H -2.1952 3.6469 -0.9828
*
