! B3LYP 6-31G* SP

* xyz -1 1
C 0.8891 0.7889 2.3273
C 0.0990 1.5653 1.2972
C -0.5680 0.8991 0.2417
N -0.5426 -0.5287 0.1275
C 0.2144 -1.1583 -0.9543
C 1.6881 -1.0383 -0.6820
C 2.3402 -1.9982 0.1048
C 3.6942 -1.8509 0.4184
C 4.4147 -0.7401 -0.0367
O 5.7717 -0.6426 0.3116
C 6.6431 0.4226 -0.0608
F 6.1770 1.6210 0.4506
F 7.8996 0.1759 0.4574
F 6.7370 0.5046 -1.4389
C 3.7563 0.2311 -0.8164
C 2.4025 0.0825 -1.1319
S -1.6124 -1.4832 1.1058
O -2.2538 -0.6242 2.1602
O -0.8265 -2.5683 1.7883
C -2.8679 -2.1729 0.0845
C -2.9004 -3.5482 -0.1791
C -3.8949 -4.0833 -1.0028
C -4.8694 -3.2491 -1.5780
C -5.9245 -3.8205 -2.4449
O -6.8064 -3.0789 -2.9550
O -5.9583 -5.1857 -2.7074
C -4.8252 -1.8676 -1.3158
C -3.8295 -1.3351 -0.4920
N -1.2342 1.6138 -0.7027
C -1.3074 2.9664 -0.6754
C -0.6836 3.6814 0.3493
C -0.7576 5.0797 0.3874
C -0.1230 5.7705 1.4178
N 0.5597 5.0909 2.3745
C 0.6517 3.7346 2.3680
C 0.0296 2.9811 1.3500
H 0.4513 0.9510 3.3347
H 0.8989 -0.3018 2.1365
H 1.9462 1.1293 2.3216
H -0.0441 -0.6781 -1.9236
H -0.0615 -2.2317 -1.0466
H 1.7982 -2.8559 0.4831
H 4.1857 -2.6005 1.0255
H 4.2757 1.1073 -1.1784
H 1.9073 0.8485 -1.7169
H -2.1572 -4.2084 0.2489
H -3.9001 -5.1501 -1.1883
H -5.5591 -1.1984 -1.7472
H -3.8067 -0.2687 -0.3044
H -1.8552 3.4806 -1.4552
H -1.2991 5.6318 -0.3714
H -0.1725 6.8506 1.4578
H 1.2100 3.2591 3.1624
*
