! B3LYP 6-31G* SP

* xyz 0 1
C -0.1906 2.6356 -0.9685
C 0.6576 2.0518 0.1405
C 0.6345 0.6627 0.4138
N -0.1515 -0.2402 -0.3735
C -1.3251 -0.8848 0.2159
C -2.4837 0.0734 0.2165
C -3.3621 0.1170 -0.8761
C -4.3989 1.0533 -0.9106
C -4.5677 1.9687 0.1346
O -5.6306 2.8821 0.0473
C -5.9520 3.8686 1.0266
F -7.0751 4.5584 0.6138
F -4.9051 4.7626 1.1650
F -6.2219 3.2650 2.2428
C -3.6729 1.9390 1.2245
C -2.6393 0.9980 1.2617
S 0.4335 -0.7524 -1.9255
O 1.5243 0.1689 -2.3969
O -0.6882 -0.7034 -2.9251
C 1.0724 -2.3861 -1.7976
C 2.3452 -2.5965 -1.2559
C 2.8587 -3.8921 -1.1426
C 2.0989 -5.0005 -1.5613
C 2.6289 -6.3827 -1.4562
O 2.1532 -7.2848 -2.1997
N 3.6572 -6.7166 -0.5118
C 4.2316 -7.9964 -0.4869
N 4.7053 -9.0520 -0.4664
C 0.8212 -4.7787 -2.1074
C 0.3100 -3.4824 -2.2171
N 1.3537 0.1590 1.4505
C 2.1265 0.9362 2.2463
C 2.2137 2.3108 2.0132
C 3.0215 3.1158 2.8310
C 3.1105 4.4880 2.5959
C 2.3970 5.0653 1.5452
C 1.5870 4.2758 0.7242
C 1.4776 2.8848 0.9460
H -0.8499 3.4315 -0.5602
H -0.8528 1.8894 -1.4453
H 0.4657 3.0635 -1.7536
H -1.5932 -1.7982 -0.3590
H -1.0963 -1.2194 1.2519
H -3.2435 -0.5715 -1.7031
H -5.0707 1.0739 -1.7604
H -3.7624 2.6381 2.0448
H -1.9512 0.9986 2.0993
H 2.9424 -1.7563 -0.9244
H 3.8581 -4.0155 -0.7488
H 3.9453 -6.0398 0.2268
H 0.2106 -5.6097 -2.4394
H -0.6805 -3.3367 -2.6280
H 2.6757 0.4766 3.0589
H 3.5831 2.6833 3.6510
H 3.7344 5.1056 3.2290
H 2.4723 6.1301 1.3653
H 1.0573 4.7653 -0.0811
*
