! B3LYP 6-31G* SP

* xyz 0 1
C -2.2395 -1.2029 -1.7844
C -2.1086 -1.8763 -0.4342
C -1.1734 -1.4105 0.5221
N -0.3102 -0.3022 0.2433
C 0.8744 -0.4776 -0.6008
C 2.1341 -0.3861 0.2198
C 2.3891 -1.3262 1.2273
C 3.5443 -1.2259 2.0054
C 4.4597 -0.1955 1.7790
C 4.2410 0.7410 0.7526
C 5.2377 1.8582 0.5231
F 4.8621 2.6330 -0.5642
F 5.2515 2.6793 1.6439
C 6.6305 1.2706 0.2117
C 7.7654 2.2885 0.2638
C 7.6571 1.2172 1.3400
C 3.0665 0.6391 -0.0198
S -0.7195 1.2495 0.9055
O 0.4852 2.1538 0.9077
O -1.1833 1.0823 2.3278
C -2.0066 1.9625 -0.0606
C -3.3347 1.5569 0.1347
C -4.3602 2.1035 -0.6426
C -4.0700 3.0688 -1.6259
C -5.1486 3.6559 -2.4516
O -6.3299 3.2335 -2.3515
O -4.8664 4.6874 -3.3458
C -2.7360 3.4673 -1.8173
C -1.7136 2.9141 -1.0435
N -1.1075 -1.9882 1.7519
C -1.8974 -3.0278 2.1125
C -2.8306 -3.5455 1.2094
C -3.6509 -4.6234 1.5798
C -4.5820 -5.1379 0.6754
C -4.7025 -4.5829 -0.6004
C -3.8955 -3.5073 -0.9807
C -2.9440 -2.9697 -0.0834
H -2.0145 -1.9324 -2.5909
H -3.2740 -0.8186 -1.9110
H -1.5566 -0.3403 -1.9107
H 0.8485 -1.4689 -1.1035
H 0.8622 0.2893 -1.4050
H 1.6890 -2.1312 1.4153
H 3.7280 -1.9471 2.7894
H 5.3421 -0.1317 2.4033
H 6.7407 0.5205 -0.6032
H 8.5821 2.1086 -0.4659
H 7.5109 3.3071 0.6255
H 8.3980 0.3967 1.2394
H 7.3304 1.5952 2.3338
H 2.8646 1.3583 -0.8025
H -3.5722 0.8089 0.8821
H -5.3790 1.7755 -0.4702
H -5.5916 5.0825 -3.9310
H -2.4816 4.2049 -2.5680
H -0.6926 3.2285 -1.2117
H -1.7939 -3.4459 3.1078
H -3.5712 -5.0658 2.5675
H -5.2112 -5.9710 0.9612
H -5.4217 -4.9905 -1.3022
H -4.0243 -3.1092 -1.9796
*
