! B3LYP 6-31G* SP

* xyz 0 1
C 6.5132 2.8053 1.0418
C 5.4007 2.2016 0.1965
O 5.9605 1.3881 -0.8261
C 5.5302 0.0242 -0.8084
C 6.0827 -0.6063 -2.1014
C 3.9939 -0.0943 -0.8870
C 3.2827 -1.1533 -0.2799
C 1.8940 -1.2438 -0.4033
C 1.1812 -0.2869 -1.1404
C -0.3184 -0.3655 -1.2381
N -0.9286 -0.3012 0.0922
C -1.5690 -1.4526 0.6562
N -0.9512 -2.1007 1.6775
C -1.4748 -3.2038 2.2631
C -2.6913 -3.7249 1.8178
C -3.2282 -4.8772 2.4151
C -4.4404 -5.3991 1.9649
C -5.1204 -4.7819 0.9151
C -4.5989 -3.6341 0.3123
C -3.3780 -3.0804 0.7582
C -2.8224 -1.9081 0.1810
C -3.5586 -1.1526 -0.9043
S -0.9143 1.1784 1.0001
O 0.3545 1.9424 0.7354
O -0.9763 0.8723 2.4717
C -2.3071 2.1454 0.5370
C -3.5286 1.9787 1.1997
C -4.6412 2.7388 0.8268
C -4.5481 3.6735 -0.2189
C -5.7259 4.4798 -0.6066
O -5.6446 5.3197 -1.5441
O -6.9383 4.3179 0.0603
C -3.3210 3.8251 -0.8899
C -2.2100 3.0633 -0.5157
C 1.8807 0.7401 -1.7855
C 3.2702 0.8265 -1.6723
C 6.1813 -0.7167 0.4076
F 6.1539 -2.0925 0.2373
F 5.5331 -0.4126 1.5929
F 7.5072 -0.3344 0.5282
H 6.9921 2.0199 1.6648
H 7.2784 3.2778 0.3877
H 6.0887 3.5796 1.7174
H 4.6758 1.6865 0.8638
H 4.8492 3.0343 -0.2899
H 7.1939 -0.5844 -2.1058
H 5.7515 -1.6626 -2.2055
H 5.7300 -0.0419 -2.9914
H 3.7841 -1.9158 0.2959
H 1.3750 -2.0609 0.0795
H -0.5898 -1.3195 -1.7421
H -0.7228 0.4611 -1.8615
H -0.9350 -3.6767 3.0731
H -2.7122 -5.3741 3.2286
H -4.8518 -6.2869 2.4275
H -6.0555 -5.1978 0.5646
H -5.1554 -3.1989 -0.5063
H -4.5973 -0.9324 -0.5731
H -3.0925 -0.1756 -1.1408
H -3.5859 -1.7621 -1.8340
H -3.6218 1.2593 2.0057
H -5.5725 2.5964 1.3598
H -7.7518 4.8597 -0.2024
H -3.2182 4.5286 -1.7059
H -1.2769 3.1862 -1.0508
H 1.3518 1.4782 -2.3786
H 3.7846 1.6239 -2.1957
*
