! B3LYP 6-31G* SP

* xyz 0 1
C -5.6992 -0.1342 2.1571
N -5.3369 -0.2545 0.7348
C -4.6325 0.7568 0.1224
O -4.3171 1.8049 0.7491
C -4.2681 0.5981 -1.2079
C -3.5624 1.3820 -2.1013
C -2.8842 2.6965 -1.8555
C -1.5696 2.4770 -1.1690
O -0.6259 1.9363 -1.8071
N -1.3925 2.8730 0.1994
C -0.2670 2.4850 0.9961
N 0.6854 1.6185 0.5908
C 1.6257 1.4012 1.5531
C 2.7607 0.4689 1.3279
C 3.8856 0.4608 2.1733
C 4.9428 -0.4256 1.9465
F 6.0146 -0.3964 2.7791
C 4.8981 -1.3242 0.8656
C 6.0427 -2.2762 0.6050
C 6.9350 -1.8222 -0.5638
C 7.7486 -0.5569 -0.2646
F 6.9149 0.5399 -0.1467
F 8.6300 -0.3281 -1.3051
F 8.4728 -0.7115 0.9043
C 3.7799 -1.3134 0.0142
F 3.7054 -2.1688 -1.0374
C 2.7258 -0.4248 0.2431
C 1.4045 2.1034 2.7437
S -0.0026 3.0091 2.5673
C -3.5029 0.6301 -3.2705
O -4.1370 -0.5157 -3.1033
C -4.5946 -0.5408 -1.8731
N -5.2876 -1.5516 -1.2848
C -5.5745 -2.7859 -2.0260
C -5.6343 -1.4156 0.0413
O -6.2233 -2.3657 0.6303
H -6.6370 -0.6859 2.3823
H -5.8849 0.9245 2.4371
H -4.8781 -0.5390 2.7852
H -2.7080 3.2124 -2.8237
H -3.5436 3.3512 -1.2484
H -2.1291 3.4579 0.6525
H 3.9649 1.1485 3.0033
H 6.6594 -2.4218 1.5179
H 5.6242 -3.2766 0.3600
H 6.3175 -1.6566 -1.4733
H 7.6449 -2.6463 -0.7942
H 1.8753 -0.4456 -0.4270
H 2.0007 2.0621 3.6437
H -3.0071 0.9217 -4.1871
H -5.5845 -2.6045 -3.1219
H -4.8008 -3.5477 -1.7934
H -6.5743 -3.1837 -1.7510
*
