! B3LYP 6-31G* SP

* xyz 0 1
C 0.6495 3.5474 -1.7777
C -0.0442 3.3452 -0.4629
N -0.0132 4.3616 0.4433
C -0.6295 4.2774 1.6504
C -1.3399 3.1292 1.9911
C -1.4020 2.0715 1.0858
C -0.7431 2.1534 -0.1500
C -0.8240 1.0083 -1.0842
O -1.0609 1.2124 -2.3050
N -0.6775 -0.3470 -0.6105
C 0.6141 -0.8233 -0.0533
C 0.6891 -0.6253 1.4796
C 1.7638 0.4414 1.7578
C 2.4107 0.6501 0.4423
C 3.5257 1.4496 0.1777
F 4.1295 2.1477 1.1711
C 4.0160 1.5139 -1.1350
C 3.3887 0.7822 -2.1599
Cl 4.0010 0.8697 -3.8003
C 2.2634 -0.0069 -1.8739
C 1.7851 -0.0498 -0.5602
C -1.8549 -1.2348 -0.7376
C -2.0008 -1.7789 -2.1415
N -0.8704 -2.1957 -2.9087
O -3.1536 -1.8962 -2.6372
C -1.8934 -2.3262 0.3241
C -2.5075 -2.0589 1.5625
C -2.5229 -3.0245 2.5728
C -1.9238 -4.2676 2.3626
C -1.3061 -4.5468 1.1422
C -1.2869 -3.5846 0.1282
H 1.2435 2.6531 -2.0477
H 1.3427 4.4130 -1.7207
H -0.1022 3.7470 -2.5696
H -0.5760 5.1083 2.3413
H -1.8453 3.0622 2.9457
H -1.9813 1.1950 1.3434
H 0.7770 -1.8922 -0.3011
H 0.9895 -1.5834 1.9582
H -0.2828 -0.3250 1.9177
H 2.5025 0.0790 2.5048
H 1.3011 1.3899 2.1053
H 4.8795 2.1277 -1.3564
H 1.7706 -0.5617 -2.6595
H -2.7604 -0.6067 -0.5664
H -1.0013 -2.5497 -3.8820
H 0.0900 -2.1978 -2.5065
H -2.9698 -1.0981 1.7502
H -2.9976 -2.8070 3.5209
H -1.9352 -5.0137 3.1467
H -0.8368 -5.5090 0.9824
H -0.7897 -3.8253 -0.8006
*
