! B3LYP 6-31G* SP

* xyz 0 1
O 0.9937 0.7575 -1.9049
C 1.1991 0.0262 -0.8976
N 2.3769 0.2268 -0.0985
C 3.5517 0.9142 -0.5621
C 3.9535 0.8539 -1.9098
C 5.1131 1.5131 -2.3302
C 5.8870 2.2262 -1.4107
F 7.0116 2.8631 -1.8203
C 5.5065 2.2739 -0.0670
C 4.3483 1.6153 0.3573
N 0.2151 -0.9590 -0.5196
C 0.6037 -2.1039 0.3136
C -0.0494 -3.3778 -0.2083
C -1.5312 -3.2004 -0.3759
C -2.3724 -4.3199 -0.3099
C -3.7387 -4.1714 -0.5472
N -4.2466 -2.9523 -0.8616
C -3.4567 -1.8502 -0.9479
C -2.0759 -1.9409 -0.6994
C -1.2092 -0.6958 -0.8062
C -1.7138 0.4030 0.1103
C -1.9244 0.1618 1.4791
C -2.3605 1.1881 2.3211
C -2.5696 2.4829 1.8175
C -3.0866 3.5778 2.7162
F -2.6380 3.3983 4.0134
F -4.4687 3.5564 2.7105
F -2.6529 4.8167 2.2766
C -2.3770 2.7192 0.4460
C -1.9416 1.6926 -0.3964
H 2.3326 -0.0422 0.9104
H 3.3878 0.2807 -2.6321
H 5.4153 1.4634 -3.3684
H 6.1094 2.8195 0.6476
H 4.0653 1.6586 1.4016
H 0.2999 -1.9214 1.3660
H 1.7045 -2.2566 0.2927
H 0.3916 -3.6408 -1.1941
H 0.1647 -4.2060 0.5023
H -1.9725 -5.3008 -0.0842
H -4.3951 -5.0296 -0.4932
H -3.9046 -0.8998 -1.2085
H -1.2960 -0.3687 -1.8665
H -1.7657 -0.8249 1.8939
H -2.5357 0.9685 3.3667
H -2.5627 3.6991 0.0243
H -1.7854 1.9055 -1.4466
*
