! B3LYP 6-31G* SP

* xyz 0 1
O 2.3308 -1.7208 -1.2401
C 1.6842 -0.7090 -0.8513
N 2.3910 0.4960 -0.5012
C 3.8153 0.5574 -0.3156
C 4.5090 1.7152 -0.6929
C 5.8887 1.8103 -0.4967
C 6.5977 0.7589 0.0949
O 7.9838 0.9072 0.2648
C 8.8494 -0.0589 0.8576
F 10.1407 0.4326 0.8501
F 8.8165 -1.2381 0.1342
F 8.4707 -0.2984 2.1670
C 5.9003 -0.3969 0.4963
C 4.5201 -0.4928 0.2976
N 0.2435 -0.7703 -0.7876
C -0.5609 0.4613 -0.7878
C -2.0241 0.1721 -1.1431
C -2.6637 -0.9026 -0.2153
C -3.8960 -1.5411 -0.9096
C -5.0165 -0.5151 -1.1358
C -5.2995 0.2837 0.1102
C -6.5170 0.9674 0.2442
C -6.7711 1.7333 1.3854
C -5.8108 1.8264 2.3959
C -4.5879 1.1597 2.2670
Cl -3.3884 1.2957 3.5430
C -4.3231 0.3967 1.1206
O -3.0933 -0.2636 0.9939
C -1.6415 -2.0155 0.1686
C -0.4351 -2.0741 -0.7724
H 1.8643 1.3944 -0.4273
H 3.9800 2.5401 -1.1526
H 6.4109 2.7069 -0.8064
H 6.4109 -1.2248 0.9680
H 4.0020 -1.3765 0.6468
H -0.5049 0.9412 0.2135
H -0.1643 1.1686 -1.5482
H -2.0557 -0.1679 -2.2021
H -2.5994 1.1221 -1.0882
H -3.6041 -1.9948 -1.8822
H -4.3040 -2.3546 -0.2695
H -5.9343 -1.0554 -1.4549
H -4.7326 0.1804 -1.9549
H -7.2678 0.9071 -0.5341
H -7.7133 2.2568 1.4863
H -6.0149 2.4229 3.2756
H -1.2529 -1.8218 1.1932
H -2.1194 -3.0185 0.2053
H -0.7631 -2.3381 -1.8010
H 0.2497 -2.8716 -0.4094
*
