! B3LYP 6-31G* SP

* xyz -1 1
C 2.6101 2.0971 -0.5156
C 1.1594 2.4345 -0.3120
C 0.7532 3.7777 -0.2931
C -0.5855 4.1057 -0.0503
C -1.0134 5.4410 -0.0076
C -2.3553 5.7365 0.2575
C -3.2737 4.7040 0.4767
C -2.8551 3.3706 0.4304
C -1.5141 3.0675 0.1689
N -1.1007 1.7751 0.1423
C 0.1940 1.4279 -0.0918
N 0.5492 0.0376 -0.0853
C 0.6164 -0.6505 -1.3811
C 1.5986 -1.7977 -1.3770
C 1.2548 -3.0136 -1.9901
C 2.1690 -4.0679 -2.0251
C 3.4348 -3.9186 -1.4537
C 3.8023 -2.7140 -0.8454
O 5.0819 -2.6227 -0.2726
C 5.5759 -1.5076 0.4649
F 4.7572 -1.2558 1.5522
F 5.6390 -0.3886 -0.3457
F 6.8467 -1.7986 0.9219
C 2.8831 -1.6467 -0.8256
S 0.1186 -0.8658 1.3409
O 1.0109 -2.0650 1.5021
O 0.2933 0.0060 2.5546
C -1.5590 -1.3862 1.2221
C -1.8839 -2.5448 0.5069
C -3.2164 -2.9494 0.3884
C -4.2444 -2.1993 0.9850
C -5.6540 -2.6295 0.8573
O -6.5792 -1.9581 1.3870
O -5.9786 -3.7813 0.1503
C -3.9121 -1.0331 1.6983
C -2.5789 -0.6305 1.8142
H 2.7266 1.4293 -1.3924
H 3.2197 3.0067 -0.7049
H 3.0055 1.5989 0.3927
H 1.4795 4.5669 -0.4504
H -0.3138 6.2518 -0.1704
H -2.6824 6.7678 0.3000
H -4.3088 4.9381 0.6910
H -3.5705 2.5765 0.6055
H -0.4033 -1.0118 -1.6414
H 0.9218 0.0590 -2.1817
H 0.2785 -3.1463 -2.4416
H 1.8954 -5.0040 -2.4959
H 4.1336 -4.7452 -1.4807
H 3.1489 -0.7103 -0.3648
H -1.1064 -3.1313 0.0340
H -3.4407 -3.8478 -0.1718
H -4.6816 -0.4300 2.1634
H -2.3460 0.2758 2.3594
*
