! B3LYP 6-31G* SP

* xyz 0 1
O 2.8983 4.7855 -1.4484
C 2.5150 3.6805 -1.9194
O 2.2385 3.5787 -3.2804
C 2.3519 2.5056 -1.0362
C 2.6089 2.6030 0.3433
C 2.4115 1.5009 1.1803
C 1.9526 0.2865 0.6528
S 1.5887 -1.0735 1.7137
O 1.9914 -0.7589 3.1275
O 2.3708 -2.2732 1.2563
N -0.1149 -1.4258 1.6756
C -1.0746 -0.4934 2.2787
C -1.0981 0.8085 1.5247
C -0.7115 2.0155 2.1646
C -0.6660 3.2239 1.4463
C -1.0107 3.1904 0.0988
C -1.0268 4.1827 -0.8525
C -1.4352 3.5421 -2.0177
O -1.6504 2.2590 -1.7878
C -1.3975 2.0357 -0.5218
C -1.4683 0.8248 0.1608
C -0.5744 -2.5871 0.9707
N -0.3105 -2.7078 -0.3579
C -0.7199 -3.7806 -1.0837
C -1.4505 -4.8111 -0.4724
C -1.8654 -6.0324 -1.2518
F -2.0565 -5.7213 -2.5870
F -3.0497 -6.5468 -0.7525
F -0.8778 -6.9941 -1.1507
C -1.6956 -4.7275 0.9066
C -1.2654 -3.6154 1.6351
Cl -1.5406 -3.5712 3.3713
C 1.7237 0.1761 -0.7237
C 1.9180 1.2770 -1.5627
H 2.3353 4.3798 -3.8923
H 2.9432 3.5360 0.7795
H 2.5892 1.6078 2.2425
H -2.0998 -0.9213 2.2623
H -0.8055 -0.3346 3.3448
H -0.4232 2.0140 3.2080
H -0.3535 4.1440 1.9223
H -0.7696 5.2262 -0.7271
H -1.5602 4.0145 -2.9828
H -1.7650 -0.0795 -0.3545
H -0.4708 -3.8279 -2.1352
H -2.2105 -5.5306 1.4194
H 1.3712 -0.7546 -1.1460
H 1.7102 1.1698 -2.6195
*
