! B3LYP 6-31G* SP

* xyz 0 1
C -2.4565 -0.7276 -1.3998
C -1.9555 -1.0370 -0.0189
C -0.6610 -0.7564 0.4306
N 0.3670 -0.1281 -0.3416
C 0.8405 1.2073 0.0201
C -0.2489 2.2153 -0.2222
C -0.4417 2.7495 -1.5036
C -1.5017 3.6254 -1.7520
C -2.3937 3.9768 -0.7216
C -3.5531 4.9107 -0.9725
F -3.5604 5.3822 -2.2740
F -4.7411 4.2419 -0.7402
F -3.4692 5.9929 -0.1154
C -2.2050 3.4270 0.5601
F -3.0568 3.7300 1.5728
C -1.1432 2.5513 0.8046
S 1.1395 -1.0077 -1.6224
O 0.4630 -2.3353 -1.8229
O 1.0372 -0.2188 -2.8978
C 2.8221 -1.2841 -1.1906
C 3.1269 -2.0495 -0.0593
C 4.4581 -2.2642 0.3088
C 5.5052 -1.7111 -0.4504
C 6.9163 -1.9327 -0.0650
O 7.2004 -2.6342 0.9435
O 7.9455 -1.3670 -0.8137
C 5.1916 -0.9401 -1.5836
C 3.8592 -0.7276 -1.9498
S -0.4950 -1.1877 2.0551
C -2.0638 -1.7702 2.1969
C -2.6696 -2.3232 3.3226
C -4.0032 -2.7450 3.2198
C -4.7010 -2.6064 2.0052
C -4.0718 -2.0443 0.8817
C -2.7390 -1.6254 0.9895
H -3.4193 -0.1786 -1.3365
H -2.6081 -1.6737 -1.9598
H -1.7393 -0.0902 -1.9564
H 1.1554 1.2175 1.0863
H 1.7365 1.4765 -0.5809
H 0.2240 2.4794 -2.3142
H -1.6236 4.0186 -2.7528
H -1.0252 2.1240 1.7929
H 2.3325 -2.4778 0.5393
H 4.6666 -2.8607 1.1883
H 8.9151 -1.5121 -0.5584
H 5.9749 -0.4994 -2.1874
H 3.6409 -0.1269 -2.8230
H -2.1266 -2.4253 4.2533
H -4.4982 -3.1787 4.0789
H -5.7298 -2.9351 1.9362
H -4.6175 -1.9443 -0.0474
*
