! B3LYP 6-31G* SP

* xyz -1 1
C -1.8417 0.0755 3.7784
O -1.5570 -1.2156 3.2530
C -1.1030 -1.4181 1.9433
N -0.8925 -0.3546 1.1261
C -0.4630 -0.4820 -0.1540
N -0.2630 0.7060 -0.9289
C 0.7989 1.6420 -0.5599
C 2.1416 0.9762 -0.6863
C 2.7314 0.3543 0.4259
C 3.9417 -0.3316 0.2936
C 4.5792 -0.4086 -0.9608
O 5.7997 -1.0755 -1.1516
C 6.5785 -1.6777 -0.1199
F 7.7388 -2.1853 -0.6726
F 6.9152 -0.7337 0.8335
F 5.8738 -2.7134 0.4670
C 3.9783 0.2000 -2.0698
C 2.7656 0.8804 -1.9379
S -1.5091 1.2123 -2.0237
O -0.8817 1.7318 -3.2868
O -2.3935 0.0484 -2.3761
C -2.4741 2.4599 -1.2454
C -3.2917 2.1239 -0.1598
C -4.0430 3.1080 0.4884
C -3.9886 4.4449 0.0569
C -4.7825 5.4905 0.7380
O -5.5033 5.2036 1.7307
O -4.7442 6.8056 0.2917
C -3.1628 4.7760 -1.0323
C -2.4085 3.7904 -1.6764
C -0.1969 -1.7617 -0.6892
C 0.3372 -1.9113 -2.0971
C -0.4120 -2.8967 0.1340
C -0.1825 -4.2107 -0.3320
C -0.3984 -5.3099 0.5009
C -0.8430 -5.1241 1.8077
C -1.0775 -3.8371 2.2918
C -0.8680 -2.7171 1.4666
H -2.6357 0.5648 3.1742
H -2.1964 -0.0268 4.8249
H -0.9236 0.7007 3.7675
H 0.7684 2.5402 -1.2130
H 0.6351 1.9956 0.4809
H 2.2501 0.3982 1.3942
H 4.3681 -0.7978 1.1709
H 4.4517 0.1368 -3.0409
H 2.3100 1.3255 -2.8123
H -3.3440 1.0996 0.1885
H -4.6641 2.8212 1.3272
H -3.0946 5.7974 -1.3847
H -1.7711 4.0686 -2.5059
H 0.4938 -0.9408 -2.6077
H 1.3197 -2.4292 -2.0706
H -0.3776 -2.4994 -2.7108
H 0.1605 -4.4050 -1.3391
H -0.2189 -6.3109 0.1295
H -1.0076 -5.9807 2.4483
H -1.4221 -3.7231 3.3118
*
