! B3LYP 6-31G* SP

* xyz 0 1
C 5.2833 -3.5325 -1.5268
O 4.3101 -2.5323 -1.8108
C 3.5844 -1.8343 -0.8346
C 3.7560 -2.0676 0.5429
C 3.0122 -1.3417 1.4748
C 2.0942 -0.3795 1.0468
C 1.8969 -0.1461 -0.3247
C 0.9214 0.9050 -0.8083
N -0.3535 0.8855 -0.0591
C -0.9893 2.1400 0.3049
O -2.2449 2.2083 0.3874
C -0.2147 3.3683 0.5855
C 0.8949 3.3413 1.4458
C 1.6101 4.5129 1.7128
C 1.2161 5.7213 1.1331
C 0.0997 5.7614 0.2948
C -0.6181 4.5918 0.0249
C -1.0939 -0.3990 0.0411
C -1.3454 -0.7839 1.4908
O -1.3267 0.1147 2.3773
N -1.6562 -2.1429 1.8727
C -2.1345 -2.4038 3.2349
C -1.4847 -3.2552 0.9314
C -2.3519 -0.3870 -0.8173
C -3.6479 -0.2987 -0.2641
C -4.7724 -0.2737 -1.0941
C -4.6227 -0.3329 -2.4805
C -3.3476 -0.4187 -3.0407
C -2.2190 -0.4444 -2.2162
C 2.6580 -0.8718 -1.2565
H 5.6952 -3.9185 -2.4813
H 4.8156 -4.3751 -0.9750
H 6.1139 -3.0989 -0.9301
H 4.4617 -2.8037 0.9025
H 3.1484 -1.5232 2.5332
H 1.5256 0.1628 1.7877
H 0.6934 0.7517 -1.8846
H 1.4288 1.8874 -0.7408
H 1.1993 2.4211 1.9204
H 2.4682 4.4848 2.3703
H 1.7714 6.6273 1.3400
H -0.2087 6.6987 -0.1494
H -1.4787 4.6374 -0.6300
H -0.4585 -1.2041 -0.3820
H -2.3906 -3.4743 3.3875
H -3.0469 -1.8008 3.4316
H -1.3461 -2.1257 3.9681
H -1.7725 -4.2266 1.3850
H -0.4187 -3.3270 0.6284
H -2.1205 -3.0982 0.0350
H -3.7971 -0.2342 0.8062
H -5.7624 -0.1963 -0.6614
H -5.4955 -0.3091 -3.1205
H -3.2326 -0.4585 -4.1154
H -1.2390 -0.5090 -2.6702
H 2.5323 -0.6928 -2.3176
*
