! B3LYP 6-31G* SP

* xyz 0 1
C -1.0176 -2.0356 1.3998
C -1.0911 -1.7729 -0.1126
C -1.2371 -3.0258 -0.9662
C -0.7143 -4.2751 -0.5674
C -0.8397 -5.3948 -1.3940
C -1.4707 -5.2848 -2.6335
F -1.5875 -6.3725 -3.4340
C -1.9727 -4.0515 -3.0528
C -1.8545 -2.9265 -2.2308
F -2.3410 -1.7381 -2.6724
N 0.0557 -0.9671 -0.5737
C 1.4335 -1.4799 -0.5102
C 2.2954 -0.5635 0.3212
C 2.4617 -0.7970 1.6944
C 3.2092 0.0870 2.4737
C 3.7886 1.2170 1.8956
C 3.6341 1.4712 0.5217
C 4.2378 2.6779 -0.0864
O 4.1100 2.9037 -1.3199
O 4.9498 3.5795 0.7007
C 2.8876 0.5705 -0.2595
C -0.1917 0.2529 -1.2949
O 0.2651 0.3925 -2.4612
C -0.9427 1.3540 -0.6727
C -1.2920 2.5510 -1.2945
C -1.9384 3.2482 -0.2993
C -2.5075 4.5193 -0.3357
C -3.1058 4.9948 0.8427
C -3.1174 4.1995 2.0058
C -2.5253 2.9278 1.9790
N -1.9593 2.5075 0.8195
N -1.3550 1.3505 0.6167
H -0.0972 -2.5794 1.6851
H -1.8993 -2.6282 1.7254
H -1.0255 -1.0706 1.9489
H -2.0281 -1.1861 -0.2457
H -0.2055 -4.3982 0.3770
H -0.4412 -6.3488 -1.0733
H -2.4524 -3.9655 -4.0192
H 1.4590 -2.5052 -0.0853
H 1.8484 -1.5638 -1.5383
H 2.0153 -1.6626 2.1656
H 3.3326 -0.0998 3.5329
H 4.3561 1.8914 2.5235
H 5.3577 4.4153 0.2969
H 2.7547 0.7549 -1.3187
H -1.0957 2.8634 -2.3120
H -2.4899 5.1196 -1.2363
H -3.5595 5.9772 0.8573
H -3.5779 4.5673 2.9136
H -2.5185 2.2991 2.8604
*
