! B3LYP 6-31G* SP

* xyz 0 1
C -2.6647 1.4446 2.6227
N -3.4816 0.8830 1.5284
C -2.9762 0.8460 0.2582
O -1.8168 1.2954 0.0531
C -3.7362 0.3030 -0.8064
C -3.2816 0.2671 -2.1704
C -1.9437 0.8067 -2.6471
C -0.8193 -0.1257 -2.2931
O -0.9387 -1.3577 -2.5336
N 0.4058 0.4001 -1.7586
C 1.4352 -0.3931 -1.1508
N 2.6160 0.1305 -0.7601
C 3.4243 -0.7940 -0.1682
C 4.7786 -0.4333 0.3272
C 5.3649 0.7823 -0.0626
C 6.6372 1.1429 0.3902
F 7.1447 2.3432 0.0103
C 7.3669 0.2820 1.2338
C 8.7281 0.6901 1.7566
F 9.5083 -0.4185 2.0350
F 9.4071 1.4553 0.8246
F 8.5674 1.4287 2.9139
C 6.7601 -0.9154 1.6636
F 7.3854 -1.7386 2.5432
C 5.4877 -1.2711 1.2060
C 2.8696 -2.0760 -0.0854
S 1.3333 -2.0283 -0.7670
C -4.0947 -0.3247 -3.1496
C -5.3349 -0.8487 -2.8278
C -5.7957 -0.8045 -1.5208
C -5.0159 -0.2361 -0.4850
N -5.4748 -0.2127 0.8161
C -6.7993 -0.7788 1.1560
C -4.7014 0.3325 1.8099
O -5.1141 0.3242 3.0051
H -2.0211 0.6487 3.0533
H -2.0237 2.2783 2.2640
H -3.2996 1.8753 3.4262
H -1.7733 1.8291 -2.2521
H -1.9371 0.9330 -3.7516
H 0.5544 1.4338 -1.7902
H 4.8384 1.4607 -0.7224
H 5.0557 -2.1941 1.5663
H 3.3338 -2.9617 0.3242
H -3.7670 -0.3821 -4.1807
H -5.9471 -1.2960 -3.6008
H -6.7711 -1.2316 -1.3394
H -6.8212 -1.8626 0.9129
H -7.5947 -0.2458 0.5925
H -7.0579 -0.6855 2.2305
*
