! B3LYP 6-31G* SP

* xyz 0 1
O -2.3682 1.4598 1.4337
C -1.8100 1.3111 0.3120
N -2.5165 0.6303 -0.7420
C -3.5903 -0.3066 -0.5198
C -4.5430 -0.5094 -1.5294
C -5.5794 -1.4367 -1.3553
C -5.6670 -2.1956 -0.1758
C -6.8122 -3.1552 0.0258
F -7.9015 -2.4636 0.5237
F -7.1658 -3.7507 -1.1756
F -6.4648 -4.1559 0.9189
C -4.7178 -1.9900 0.8393
C -3.6787 -1.0681 0.6626
N -0.4861 1.8507 0.0922
C 0.0742 1.9048 -1.2680
C 1.5390 2.3678 -1.2662
C 2.3292 1.6404 -0.1601
C 3.8211 2.0587 -0.2340
C 4.6899 1.2185 0.7159
C 4.4075 -0.2567 0.5781
C 5.3416 -1.1993 1.0356
C 5.0641 -2.5666 0.9435
C 3.8499 -3.0016 0.4045
C 2.9059 -2.0705 -0.0427
Cl 1.3769 -2.6306 -0.7029
C 3.1774 -0.6977 0.0510
O 2.2285 0.2283 -0.3983
C 1.7205 1.9645 1.2422
C 0.2638 2.4653 1.2007
H -2.2975 0.8828 -1.7329
H -4.4864 0.0578 -2.4529
H -6.3122 -1.5575 -2.1437
H -4.7721 -2.5474 1.7678
H -2.9357 -0.9731 1.4429
H -0.5295 2.5973 -1.8938
H 0.0342 0.8904 -1.7226
H 1.5827 3.4683 -1.1058
H 1.9841 2.1531 -2.2630
H 3.9360 3.1369 0.0122
H 4.1974 1.9099 -1.2709
H 5.7611 1.4207 0.4913
H 4.4993 1.5222 1.7679
H 6.2829 -0.8747 1.4630
H 5.7891 -3.2896 1.2941
H 3.6408 -4.0623 0.3396
H 1.7662 1.0534 1.8812
H 2.3206 2.7426 1.7645
H -0.2058 2.2544 2.1858
H 0.2563 3.5694 1.0638
*
