! B3LYP 6-31G* SP

* xyz 0 1
C 6.0828 1.2278 1.7311
O 4.7469 0.7854 1.9372
C 3.9280 0.2445 0.9347
C 4.3644 0.0854 -0.3954
C 3.5075 -0.4617 -1.3574
C 2.2117 -0.8493 -1.0075
C 1.7589 -0.6896 0.3120
C 0.3424 -1.0632 0.6857
N -0.6556 -0.1684 0.0605
C -1.9276 -0.7289 -0.3632
O -2.9854 -0.0500 -0.2789
C -2.0375 -2.1006 -0.8918
C -1.2297 -2.5202 -1.9592
C -1.3321 -3.8267 -2.4465
C -2.2486 -4.7158 -1.8812
C -3.0738 -4.2958 -0.8345
C -2.9766 -2.9895 -0.3471
C -0.4389 1.3004 0.1383
C -0.0404 1.8645 -1.2078
N -0.7199 1.4988 -2.4104
O 0.9039 2.6920 -1.2702
C -1.5835 2.0346 0.8218
C -1.8058 1.8043 2.1927
C -2.8573 2.4379 2.8603
C -3.7000 3.3095 2.1690
C -3.4951 3.5463 0.8081
C -2.4465 2.9150 0.1339
C 2.6278 -0.1441 1.2787
H 6.4859 1.6155 2.6903
H 6.1029 2.0469 0.9798
H 6.7167 0.3820 1.3907
H 5.3606 0.3802 -0.6946
H 3.8471 -0.5810 -2.3790
H 1.5627 -1.2599 -1.7664
H 0.1869 -2.1207 0.3914
H 0.2048 -1.0275 1.7882
H -0.5353 -1.8337 -2.4218
H -0.7028 -4.1490 -3.2670
H -2.3251 -5.7277 -2.2583
H -3.7866 -4.9827 -0.4000
H -3.6230 -2.6747 0.4628
H 0.4321 1.4952 0.8024
H -0.3813 1.8654 -3.3281
H -1.5858 0.9229 -2.4000
H -1.1634 1.1287 2.7434
H -3.0172 2.2523 3.9147
H -4.5145 3.7984 2.6865
H -4.1526 4.2189 0.2732
H -2.3230 3.1148 -0.9214
H 2.2911 -0.0068 2.3004
*
