! B3LYP 6-31G* SP

* xyz 0 1
O 6.1856 -2.1220 -1.2090
C 5.6663 -2.4080 -0.0957
O 6.1816 -3.4694 0.6448
C 4.5212 -1.6258 0.4199
C 3.9495 -1.9404 1.6652
C 2.8642 -1.2058 2.1528
C 2.3351 -0.1477 1.4026
S 0.9559 0.7733 1.9914
O 0.3680 0.1279 3.2152
O 1.4163 2.1602 2.3447
N -0.2583 0.8379 0.7502
C -0.7616 -0.4083 0.1699
C -2.2652 -0.5402 0.4207
C -2.7835 -1.8352 -0.1430
C -2.7883 -2.9992 0.6432
C -3.2366 -4.2099 0.1061
C -3.6732 -4.2688 -1.2199
C -3.6570 -3.1182 -2.0126
C -3.2091 -1.9055 -1.4794
C -0.5885 2.0932 0.1420
N -0.2491 2.3153 -1.1564
C -0.5391 3.4816 -1.7902
C -1.2017 4.5129 -1.1068
C -1.5775 5.7898 -1.8143
F -1.6047 6.8496 -0.9237
F -2.8302 5.6443 -2.3809
F -0.6627 6.0850 -2.8107
C -1.5986 4.2866 0.2201
C -1.2901 3.0800 0.8538
Cl -1.8499 2.8052 2.4981
C 2.9012 0.1727 0.1632
C 3.9861 -0.5597 -0.3265
H 6.9643 -4.0123 0.3001
H 4.3383 -2.7553 2.2630
H 2.4387 -1.4665 3.1133
H -0.5524 -0.4234 -0.9220
H -0.2405 -1.2792 0.6247
H -2.8012 0.3142 -0.0473
H -2.4627 -0.4951 1.5142
H -2.4430 -2.9691 1.6689
H -3.2416 -5.1035 0.7166
H -4.0180 -5.2071 -1.6346
H -3.9872 -3.1668 -3.0416
H -3.1914 -1.0233 -2.1069
H -0.2547 3.5997 -2.8276
H -2.1576 5.0412 0.7597
H 2.4995 0.9882 -0.4256
H 4.4034 -0.2929 -1.2897
*
