! B3LYP 6-31G* SP

* xyz 0 1
O 1.4554 0.1109 1.7011
C 1.4081 -0.1536 0.4685
N 2.3002 0.5141 -0.4395
C 3.5172 1.1638 -0.0341
C 3.9814 2.2729 -0.7592
C 5.1731 2.9079 -0.3962
C 5.9190 2.4321 0.6854
F 7.0757 3.0472 1.0347
C 5.4773 1.3156 1.4005
C 4.2854 0.6784 1.0410
N 0.4126 -1.0738 -0.0253
C 0.6155 -1.7565 -1.3092
C 0.2071 -3.2199 -1.1946
C -1.1733 -3.3559 -0.6197
C -1.9381 -4.4956 -0.9104
N -3.1549 -4.6716 -0.3325
C -3.6636 -3.7708 0.5467
C -2.9334 -2.6303 0.8814
C -1.6777 -2.4065 0.2925
C -0.8894 -1.1602 0.6655
C -1.6909 0.0984 0.3909
C -2.2721 0.3248 -0.8690
C -2.9800 1.5025 -1.1223
C -3.1303 2.4737 -0.1183
C -3.8499 3.7668 -0.4081
F -2.9473 4.6881 -0.9052
F -4.4251 4.2749 0.7439
F -4.8531 3.5693 -1.3412
C -2.5187 2.2636 1.1290
C -1.8114 1.0853 1.3826
H 1.9888 0.6310 -1.4302
H 3.4135 2.6504 -1.6003
H 5.5183 3.7679 -0.9557
H 6.0622 0.9376 2.2291
H 3.9796 -0.2038 1.5874
H 1.6848 -1.7276 -1.6115
H 0.0193 -1.2532 -2.0994
H 0.2545 -3.6846 -2.2038
H 0.9231 -3.7514 -0.5312
H -1.5630 -5.2490 -1.5913
H -4.6343 -3.9433 0.9920
H -3.3442 -1.9235 1.5918
H -0.6988 -1.2507 1.7584
H -2.1812 -0.4118 -1.6565
H -3.4075 1.6553 -2.1053
H -2.5832 3.0134 1.9075
H -1.3507 0.9477 2.3529
*
