! B3LYP 6-31G* SP

* xyz 0 1
C 7.3665 1.4915 0.2889
C 6.9594 0.0523 0.5760
N 5.6500 -0.2237 -0.0007
N 5.4542 -0.6678 -1.2298
N 4.1523 -0.7518 -1.4495
C 3.5746 -0.3308 -0.3046
C 2.1158 -0.2544 -0.1088
S 0.9957 -0.6876 -1.2877
C -0.3456 -0.3304 -0.3332
C -1.7636 -0.4760 -0.7389
C -2.1012 -0.9460 -2.0184
C -3.4383 -1.0816 -2.3896
C -4.4558 -0.7514 -1.4938
C -4.1513 -0.2761 -0.2027
N -5.2085 0.0691 0.7301
C -6.5511 -0.5059 0.5816
C -4.9544 1.0006 1.8360
C -2.7937 -0.1443 0.1605
N 0.0415 0.1187 0.8824
C 1.3943 0.1652 1.0189
O 1.9631 0.6055 2.2129
N 4.5018 0.0106 0.6103
H 7.4184 1.6620 -0.8075
H 6.6285 2.1927 0.7333
H 8.3647 1.6929 0.7314
H 7.7130 -0.6404 0.1427
H 6.9260 -0.1120 1.6747
H -1.3356 -1.2101 -2.7360
H -3.6882 -1.4427 -3.3790
H -5.4798 -0.8594 -1.8230
H -7.1710 -0.3336 1.4869
H -6.4775 -1.6040 0.4317
H -7.0662 -0.0429 -0.2858
H -5.9004 1.3436 2.3059
H -4.3400 0.5029 2.6151
H -4.4243 1.9006 1.4583
H -2.5324 0.2055 1.1495
H 2.9591 0.6589 2.3666
*
