! B3LYP 6-31G* SP

* xyz 0 1
C 5.5718 -0.2975 0.2786
O 4.2053 -0.0208 0.5609
C 3.1670 -0.3906 -0.2968
O 3.4252 -1.0041 -1.3686
C 1.7617 -0.0884 0.0361
S 0.4534 -0.6241 -0.8794
C -0.7060 0.0799 0.1181
C -2.1726 0.0184 -0.0780
C -2.7293 -0.6713 -1.1721
C -4.1160 -0.7218 -1.3457
C -4.9608 -0.0867 -0.4330
C -4.4206 0.6005 0.6560
C -3.0348 0.6543 0.8348
N -0.1167 0.7270 1.1488
C 1.2410 0.6447 1.1148
O 2.0023 1.2710 2.1006
H 5.8724 0.1986 -0.6685
H 6.2007 0.0935 1.1045
H 5.7284 -1.3938 0.1949
H -2.0983 -1.1722 -1.8944
H -4.5358 -1.2541 -2.1894
H -6.0337 -0.1272 -0.5695
H -5.0762 1.0924 1.3630
H -2.6394 1.1931 1.6867
H 3.0111 1.2793 2.1056
*
