! B3LYP 6-31G* SP

* xyz 0 1
F -0.2158 3.8071 2.1963
C 0.7871 3.0062 1.6856
F 1.5491 2.5228 2.7341
F 1.5756 3.7644 0.8388
O 0.1953 1.9252 0.9692
C 0.8999 0.9036 0.3086
C 2.3180 0.8544 0.2980
C 2.9276 -0.1966 -0.3796
N 4.2378 -0.4467 -0.5258
N 4.3752 -1.5512 -1.2518
C 3.1407 -2.0102 -1.5720
C 2.2091 -1.1571 -1.0225
C 0.8208 -1.1532 -1.0439
C 0.1560 -0.1110 -0.3611
C -1.3208 -0.0663 -0.3705
C -1.9487 0.8812 -1.1947
C -3.3399 0.9489 -1.2645
C -4.1195 0.0691 -0.5161
C -3.5122 -0.8738 0.3158
C -2.1082 -0.9451 0.4205
C -1.4738 -1.9740 1.3372
F -0.9564 -3.0091 0.5816
F -0.4573 -1.3977 2.0779
F -2.3971 -2.4989 2.2254
H 2.9269 1.5975 0.7929
H 5.0306 0.1160 -0.1451
H 2.9447 -2.8968 -2.1602
H 0.2729 -1.9232 -1.5730
H -1.3565 1.5631 -1.7933
H -3.8144 1.6795 -1.9068
H -5.1990 0.1172 -0.5802
H -4.1476 -1.5449 0.8790
*
