! B3LYP 6-31G* SP

* xyz 0 1
C 8.2610 -1.3064 -2.5895
C 8.6411 -0.3137 -1.4814
C 9.2336 -1.0504 -0.2717
C 7.4370 0.5516 -1.0699
O 6.3788 -0.2687 -0.5754
C 5.1381 0.2152 -0.1339
C 4.8248 1.5878 -0.1113
C 3.5765 2.0214 0.3477
C 2.6165 1.0929 0.7950
C 1.2946 1.5298 1.3149
C 0.9961 2.8375 1.7141
S -0.5861 2.8657 2.2837
C -0.8303 1.2310 1.9964
N -2.0470 0.5352 2.2983
C -2.2602 -0.8605 2.0189
O -1.3408 -1.5613 1.5100
C -3.5546 -1.5241 2.4016
C -4.7648 -0.7138 1.9641
C -5.4314 -0.0045 2.9764
C -6.5435 0.7712 2.6932
C -7.0238 0.8594 1.3945
C -6.3941 0.1706 0.3291
C -5.2407 -0.6202 0.6092
C -4.6247 -1.2769 -0.4844
O -3.6111 -2.0057 -0.3064
N -5.1181 -1.1340 -1.7526
C -4.4606 -1.8464 -2.8666
C -6.2538 -0.4057 -1.9820
O -6.7236 -0.3449 -3.1549
N -6.8873 0.2533 -0.9581
C -8.1025 1.0486 -1.2477
N 0.2699 0.6458 1.4795
C 2.9332 -0.2791 0.7528
C 4.1826 -0.7089 0.2985
H 7.8352 -0.7628 -3.4638
H 9.1637 -1.8605 -2.9341
H 7.5120 -2.0399 -2.2211
H 9.4237 0.3652 -1.8859
H 9.5338 -0.3200 0.5111
H 8.4944 -1.7572 0.1610
H 10.1379 -1.6225 -0.5777
H 7.0807 1.1298 -1.9532
H 7.7522 1.2725 -0.2808
H 5.5391 2.3282 -0.4448
H 3.3683 3.0837 0.3391
H 1.6603 3.6900 1.6970
H -2.8078 1.0790 2.7619
H -3.6165 -2.5584 2.0020
H -3.5432 -1.6579 3.5064
H -5.0843 -0.0457 4.0026
H -7.0406 1.3098 3.4910
H -7.8955 1.4801 1.2447
H -3.3548 -1.8312 -2.7512
H -4.8098 -2.9001 -2.8898
H -4.6715 -1.3716 -3.8493
H -8.9591 0.6613 -0.6533
H -7.9196 2.1172 -1.0052
H -8.4139 1.0105 -2.3131
H 2.2205 -1.0226 1.0864
H 4.4104 -1.7688 0.2851
*
