! B3LYP 6-31G* SP

* xyz 0 1
C -1.9266 6.6246 0.7671
N -1.4991 5.2867 1.1629
C -1.7273 4.7256 2.3735
C -1.1886 3.4494 2.4341
C -0.6117 3.2390 1.1992
C 0.1009 2.1488 0.6977
N 0.3024 0.9560 1.4683
C -0.8419 0.1197 1.8502
C -1.0935 -0.9350 0.8049
C -0.8808 -2.2928 1.0905
C -1.0367 -3.2565 0.0898
C -1.4136 -2.8846 -1.2055
O -1.5312 -3.8914 -2.1771
C -1.8639 -3.6763 -3.5499
F -3.1216 -3.1035 -3.6535
F -1.8715 -4.8930 -4.2060
F -0.9204 -2.8547 -4.1480
C -1.6578 -1.5257 -1.4847
C -1.5061 -0.5627 -0.4838
S 1.9195 0.3521 1.6862
O 2.9164 1.4044 1.2910
O 2.1302 0.0253 3.1378
C 2.1768 -1.0789 0.6889
C 2.1285 -0.9741 -0.7076
C 2.2674 -2.1133 -1.5074
C 2.4592 -3.3765 -0.9192
C 2.5889 -4.5885 -1.7583
O 2.5146 -4.5067 -3.0148
O 2.7901 -5.8341 -1.1674
C 2.5262 -3.4729 0.4834
C 2.3870 -2.3321 1.2814
N 0.6152 2.2451 -0.5618
C 0.4413 3.3568 -1.3368
C -0.2831 4.4630 -0.8563
Cl -0.4639 5.8733 -1.8913
C -0.8049 4.3720 0.4457
H -2.5108 7.1040 1.5804
H -1.0375 7.2568 0.5582
H -2.5737 6.5633 -0.1314
H -2.2559 5.2150 3.1804
H -1.2041 2.7747 3.2787
H -0.6484 -0.3417 2.8431
H -1.7598 0.7370 1.9607
H -0.5650 -2.6045 2.0787
H -0.8472 -4.2980 0.3177
H -1.9582 -1.1998 -2.4709
H -1.6958 0.4773 -0.7191
H 1.9738 -0.0123 -1.1797
H 2.2165 -2.0062 -2.5848
H 2.8780 -6.6705 -1.7319
H 2.6733 -4.4311 0.9669
H 2.4263 -2.4330 2.3590
H 0.8684 3.3805 -2.3300
*
