! B3LYP 6-31G* SP

* xyz 0 1
C -2.8684 -3.4090 -1.8255
C -1.9256 -3.1389 -0.6759
C -1.6489 -1.8130 -0.2676
N -2.1865 -0.6876 -0.9727
C -1.5331 -0.2055 -2.1929
C -0.1362 0.2646 -1.8846
C 0.9350 -0.6359 -1.9277
C 2.2164 -0.2352 -1.5430
C 2.4597 1.0854 -1.0943
C 3.8457 1.5574 -0.6102
C 3.7566 1.9378 0.8829
C 4.9423 0.4742 -0.7587
C 4.2927 2.7888 -1.4294
C 1.3663 1.9820 -1.0611
C 0.0906 1.5779 -1.4573
S -3.4785 0.2218 -0.2532
O -4.1217 -0.5799 0.8448
O -4.5195 0.5102 -1.2988
C -2.8423 1.7195 0.4187
C -3.2009 2.9585 -0.1286
C -2.6441 4.1385 0.3764
C -1.7198 4.0954 1.4364
C -1.1203 5.3432 1.9601
O -0.2678 5.3007 2.8921
O -1.4901 6.5768 1.4266
C -1.3739 2.8483 1.9875
C -1.9322 1.6712 1.4825
N -0.8283 -1.5809 0.7916
C -0.2354 -2.5802 1.4861
C -0.4451 -3.9111 1.1153
C 0.1838 -4.9482 1.8218
C -0.0189 -6.2764 1.4476
C -0.8461 -6.5784 0.3651
C -1.4815 -5.5560 -0.3479
C -1.2965 -4.2043 0.0194
H -2.3027 -3.8521 -2.6718
H -3.3788 -2.4923 -2.1885
H -3.6677 -4.1090 -1.5011
H -1.5064 -1.0205 -2.9478
H -2.1170 0.6270 -2.6421
H 0.7728 -1.6604 -2.2403
H 2.9998 -0.9791 -1.5871
H 4.7515 2.2399 1.2674
H 3.3931 1.0746 1.4860
H 3.0618 2.7902 1.0463
H 5.9283 0.8664 -0.4246
H 4.7118 -0.4172 -0.1319
H 5.0477 0.1611 -1.8209
H 3.6203 3.6581 -1.2689
H 5.3170 3.1064 -1.1380
H 4.3015 2.5503 -2.5164
H 1.4903 2.9996 -0.7119
H -0.7229 2.2904 -1.4153
H -3.8997 3.0138 -0.9540
H -2.9321 5.0833 -0.0677
H -1.0891 7.4374 1.7820
H -0.6703 2.7804 2.8078
H -1.6498 0.7224 1.9188
H 0.4102 -2.3310 2.3204
H 0.8350 -4.7306 2.6602
H 0.4694 -7.0734 1.9943
H -0.9951 -7.6107 0.0765
H -2.1064 -5.8365 -1.1877
*
