! B3LYP 6-31G* SP

* xyz 0 1
C 5.2811 -1.6591 1.9484
O 5.1372 -1.4360 0.5502
C 4.1186 -0.6642 -0.0289
C 4.1058 -0.5204 -1.4196
C 3.1142 0.2415 -2.0451
C 2.1205 0.8601 -1.2830
C 2.1103 0.7220 0.1127
C 1.0168 1.3574 0.9375
N -0.2334 0.5775 0.9063
C -1.4651 1.3200 0.9865
O -2.0571 1.4190 2.0950
C -2.0316 1.9726 -0.2189
C -1.5949 1.6043 -1.5061
C -2.1370 2.2161 -2.6398
C -3.1259 3.1957 -2.5040
C -3.5776 3.5610 -1.2355
C -3.0383 2.9503 -0.0959
C -0.2406 -0.8743 1.1934
C -0.3781 -1.1495 2.6723
O -0.6829 -2.3064 3.0742
O -0.0769 -0.1619 3.6022
C -1.2971 -1.5721 0.3492
C -0.9472 -2.0716 -0.9199
C -1.9114 -2.6687 -1.7386
C -3.2360 -2.7644 -1.3050
C -3.6034 -2.2503 -0.0592
C -2.6443 -1.6480 0.7619
C 3.1161 -0.0365 0.7371
H 4.3960 -2.1974 2.3423
H 6.1834 -2.2856 2.1280
H 5.4096 -0.6887 2.4806
H 4.8708 -1.0012 -2.0173
H 3.1180 0.3507 -3.1207
H 1.3660 1.4497 -1.7805
H 1.3459 1.4758 1.9929
H 0.8360 2.3851 0.5465
H -0.8624 0.8210 -1.6357
H -1.7945 1.9257 -3.6218
H -3.5438 3.6680 -3.3856
H -4.3511 4.3133 -1.1331
H -3.4176 3.2327 0.8814
H 0.7372 -1.3156 0.9140
H -0.1145 -0.3542 4.5955
H 0.0728 -1.9936 -1.2769
H -1.6299 -3.0570 -2.7079
H -3.9758 -3.2361 -1.9326
H -4.6329 -2.3146 0.2708
H -2.9537 -1.2404 1.7172
H 3.0988 -0.1516 1.8159
*
