! B3LYP 6-31G* SP

* xyz 0 1
O 2.0812 1.8358 -0.2563
C 1.5652 0.6844 -0.2344
N 2.2552 -0.3874 0.4319
C 3.6681 -0.3813 0.7008
C 4.1589 -1.0611 1.8245
C 5.5299 -1.0872 2.0945
C 6.4367 -0.4491 1.2407
O 7.8026 -0.5063 1.5619
C 8.8532 0.0866 0.8018
F 8.8843 -0.4538 -0.4713
F 10.0585 -0.1725 1.4250
F 8.6746 1.4565 0.7287
C 5.9495 0.2164 0.0995
C 4.5777 0.2436 -0.1702
N 0.2772 0.4627 -0.8493
C -0.1206 -0.9062 -1.2153
C -1.4514 -0.9304 -1.9779
C -2.5006 -0.0644 -1.2537
C -2.0113 1.4142 -1.1525
C -0.4967 1.6056 -1.3596
C -3.8501 -0.1567 -2.0078
C -4.9891 0.5375 -1.2326
O -6.2188 0.2081 -1.8262
C -4.9988 0.1293 0.2245
C -6.1368 0.3544 1.0184
C -6.1348 0.0043 2.3709
C -4.9943 -0.5575 2.9482
C -3.8452 -0.7606 2.1778
Cl -2.4106 -1.4450 2.9258
C -3.8376 -0.4040 0.8218
O -2.6743 -0.5926 0.0661
H 1.6881 -1.1632 0.8395
H 3.4761 -1.5637 2.4981
H 5.8907 -1.6084 2.9722
H 6.6192 0.7091 -0.5909
H 4.2331 0.7335 -1.0713
H 0.6690 -1.3705 -1.8451
H -0.2379 -1.5165 -0.2947
H -1.8032 -1.9832 -2.0492
H -1.2941 -0.5545 -3.0133
H -2.2885 1.8258 -0.1570
H -2.5246 2.0523 -1.9049
H -0.2837 1.7220 -2.4446
H -0.1963 2.5510 -0.8578
H -4.1204 -1.2281 -2.1429
H -3.7585 0.2948 -3.0204
H -4.8431 1.6416 -1.2687
H -6.2818 0.7344 -2.6659
H -7.0266 0.7994 0.5907
H -7.0181 0.1718 2.9735
H -5.0014 -0.8263 3.9969
*
