! B3LYP 6-31G* SP

* xyz 0 1
C 7.7329 0.1569 -1.1773
C 7.0559 -1.2085 -1.3181
C 6.1336 -1.5393 -0.1343
C 4.8489 -0.6977 -0.1364
C 3.9153 -1.1211 1.0040
C 2.6586 -0.2927 0.9931
C 2.6138 0.9318 1.6797
C 1.4604 1.7293 1.6381
O 1.4258 2.9432 2.3218
C 0.3436 1.2985 0.9019
C 0.3882 0.0773 0.2162
C 1.5424 -0.7095 0.2494
O -0.7232 -0.3369 -0.5244
C -2.0349 0.2192 -0.3429
C -2.7405 0.1742 -1.7048
C -2.7658 -0.6470 0.7207
C -4.2328 -0.2627 1.0114
C -5.1864 -0.8216 -0.0229
C -6.3764 -0.2539 -0.3372
C -6.8430 1.0385 0.2943
C -7.2756 -0.9102 -1.3547
C -1.9453 1.6637 0.1293
C -0.8669 2.1287 0.7671
H 6.9892 0.9780 -1.2536
H 8.4732 0.2864 -1.9944
H 8.2652 0.2279 -0.2037
H 7.8491 -1.9863 -1.3700
H 6.4854 -1.2457 -2.2731
H 6.6824 -1.3945 0.8235
H 5.8579 -2.6151 -0.2038
H 5.1043 0.3763 -0.0105
H 4.3236 -0.8250 -1.1089
H 4.4371 -0.9979 1.9800
H 3.6570 -2.1995 0.9012
H 3.4778 1.2697 2.2401
H 2.2202 3.2743 2.8566
H 1.5692 -1.6422 -0.3009
H -2.9070 -0.8782 -2.0203
H -2.1094 0.6696 -2.4734
H -3.7153 0.7056 -1.6749
H -2.7092 -1.7189 0.4288
H -2.2008 -0.5642 1.6758
H -4.5222 -0.6959 1.9947
H -4.3202 0.8391 1.1064
H -4.9142 -1.7694 -0.4890
H -6.8742 0.9321 1.4011
H -7.8650 1.3084 -0.0563
H -6.1560 1.8675 0.0111
H -6.8406 -1.8530 -1.7578
H -8.2556 -1.1496 -0.8846
H -7.4424 -0.2110 -2.2040
H -2.8086 2.3114 0.0327
H -0.8792 3.1400 1.1546
*
