! B3LYP 6-31G* SP

* xyz -1 1
O -5.6442 5.3045 2.5384
C -5.6853 4.0848 2.2289
O -6.7113 3.2959 2.7356
C -4.6587 3.4994 1.3393
C -4.7114 2.1378 0.9951
C -3.7421 1.5817 0.1557
C -2.7101 2.3774 -0.3552
S -1.4756 1.6581 -1.3810
O -2.1176 0.6918 -2.3378
O -0.7740 2.7195 -2.1822
N -0.3250 0.8269 -0.3830
C 0.5884 1.6030 0.4583
C 1.9987 1.1638 0.2275
C 2.8376 1.6480 -0.7757
C 4.0550 0.9605 -0.8268
C 5.1035 1.1971 -1.7214
F 5.0163 2.1789 -2.6536
C 6.2558 0.3963 -1.6413
C 6.3485 -0.6279 -0.6778
F 7.4643 -1.3951 -0.6133
C 5.2890 -0.8599 0.2136
C 4.1593 -0.0513 0.1175
S 2.7525 -0.1215 1.0301
C -0.5643 -0.5503 -0.0718
N -1.2669 -0.8275 1.0568
C -1.5492 -2.0881 1.4545
C -1.1065 -3.1745 0.7027
C -1.3951 -4.4816 1.1251
C -0.9466 -5.5738 0.3851
C -0.2073 -5.3712 -0.7779
C 0.0855 -4.0759 -1.2120
C -0.3611 -2.9473 -0.4834
C -0.0851 -1.6081 -0.8955
C 0.7190 -1.3439 -2.1681
F 0.0710 -1.9122 -3.2496
F 0.8879 -0.0046 -2.4507
F 1.9779 -1.9026 -2.0419
C -2.6463 3.7329 -0.0107
C -3.6150 4.2919 0.8280
H -5.4989 1.5001 1.3759
H -3.7934 0.5289 -0.0916
H 0.5013 2.6879 0.2344
H 0.3255 1.4634 1.5286
H 2.5647 2.4483 -1.4518
H 7.0767 0.5663 -2.3259
H 5.3475 -1.6478 0.9535
H -2.1161 -2.2375 2.3648
H -1.9659 -4.6580 2.0294
H -1.1702 -6.5800 0.7153
H 0.1419 -6.2228 -1.3476
H 0.6648 -3.9821 -2.1177
H -1.8452 4.3573 -0.3857
H -3.5440 5.3426 1.0787
*
