! B3LYP 6-31G* SP

* xyz 0 1
C 5.3620 1.0103 0.0763
C 4.4786 0.0089 0.8027
O 3.5859 -0.5985 -0.1247
C 2.6414 -1.5561 0.2544
O 2.5417 -1.9210 1.4579
C 1.7081 -2.1140 -0.7702
C 0.4841 -1.2572 -0.8688
S -0.9518 -1.5391 -0.0407
C -1.7001 -0.1417 -0.6203
C -3.0767 0.2999 -0.2983
C -3.9006 -0.4594 0.5544
C -5.1986 -0.0312 0.8505
C -5.6881 1.1557 0.3012
C -4.8805 1.9174 -0.5459
C -3.5819 1.4942 -0.8455
N -0.8650 0.5509 -1.4299
C 0.3442 -0.0555 -1.5660
O 1.3477 0.5126 -2.3476
H 5.9531 0.4944 -0.7099
H 4.7351 1.7964 -0.3956
H 6.0588 1.4880 0.7969
H 3.8991 0.5357 1.5916
H 5.1162 -0.7694 1.2754
H 2.2172 -2.1702 -1.7550
H 1.4166 -3.1483 -0.4873
H -3.5473 -1.3829 0.9937
H -5.8255 -0.6208 1.5069
H -6.6930 1.4850 0.5318
H -5.2608 2.8372 -0.9712
H -2.9747 2.1016 -1.5048
H 2.2546 0.0771 -2.4577
*
