! B3LYP 6-31G* SP

* xyz 0 1
O 1.1520 -0.6281 -1.9878
C 1.5082 -0.0805 -0.9088
N 0.7016 0.9652 -0.3333
C -0.6699 1.2852 -0.7771
C -1.4938 -0.0222 -0.8260
C -1.5756 -0.8220 0.3354
C -2.2922 -2.0208 0.3436
C -2.9340 -2.4717 -0.8209
O -3.6707 -3.6663 -0.8699
C -3.8679 -4.5582 0.2250
F -2.6514 -5.0468 0.6669
F -4.6471 -5.6185 -0.1954
F -4.5189 -3.9084 1.2583
C -2.8318 -1.7105 -1.9864
C -2.1144 -0.5113 -1.9990
C -0.5506 2.0297 -2.1451
C -1.8288 2.7924 -2.5212
O -2.1818 3.6992 -1.4865
C -2.0354 3.3686 -0.1392
C -2.5889 4.2016 0.8361
C -2.4263 3.8972 2.1868
C -1.7020 2.7615 2.5467
N -1.1650 1.9644 1.5860
C -1.3077 2.2250 0.2541
C 2.7619 -0.5196 -0.2530
C 3.7685 -1.1776 -1.0131
C 4.9614 -1.6122 -0.4068
C 5.1122 -1.3806 0.9560
N 6.1415 -1.7054 1.7468
C 5.7659 -1.2637 2.9712
N 4.5411 -0.6744 2.9830
C 4.1544 -0.7617 1.6974
C 2.9611 -0.3168 1.1351
H 1.1714 1.6193 0.3335
H -1.0629 -0.5327 1.2422
H -2.3295 -2.5912 1.2607
H -3.3044 -2.0575 -2.8969
H -2.0421 -0.0009 -2.9448
H -0.2586 1.3414 -2.9649
H 0.2686 2.7797 -2.0715
H -2.6794 2.1036 -2.6883
H -1.6619 3.3613 -3.4598
H -3.1432 5.0850 0.5457
H -2.8540 4.5374 2.9476
H -1.5640 2.5133 3.5904
H 3.6333 -1.3463 -2.0742
H 5.7323 -2.1102 -0.9806
H 7.0284 -2.1904 1.4851
H 6.3800 -1.3710 3.8555
H 2.2102 0.1465 1.7616
*
