! B3LYP 6-31G* SP

* xyz 0 1
O -2.5874 0.2421 -1.8537
C -1.9524 0.0347 -0.7836
N -2.6614 -0.1858 0.4475
C -4.0954 -0.1802 0.5508
C -4.8825 -0.8666 -0.3885
C -6.2743 -0.8852 -0.2700
C -6.9083 -0.2112 0.7862
C -8.4071 -0.2725 0.9415
F -8.7406 -1.3743 1.7067
F -8.8804 0.8695 1.5644
F -9.0233 -0.3778 -0.2935
C -6.1195 0.4372 1.7510
C -4.7244 0.4571 1.6366
Cl -3.7884 1.3140 2.8551
N -0.5145 0.0218 -0.8054
C 0.1809 -0.4552 -2.0056
C 1.4897 -1.1575 -1.6210
C 2.3784 -0.2991 -0.6913
C 2.9815 0.9036 -1.4716
C 4.0340 1.6601 -0.6476
C 5.0058 0.7255 0.0241
C 6.2317 1.2146 0.4996
C 7.1302 0.3576 1.1402
C 6.8085 -0.9901 1.3176
C 5.5827 -1.4860 0.8605
Cl 5.1915 -3.1814 1.1006
C 4.6733 -0.6292 0.2234
O 3.4474 -1.1321 -0.2310
C 1.5441 0.1422 0.5398
C 0.2391 0.8440 0.1487
H -2.1105 -0.3326 1.3219
H -4.4193 -1.4145 -1.1986
H -6.8546 -1.4358 -0.9998
H -6.5865 0.9284 2.5958
H 0.3825 0.4000 -2.6850
H -0.4543 -1.1834 -2.5566
H 2.0471 -1.4292 -2.5439
H 1.2355 -2.1086 -1.1021
H 3.4772 0.5241 -2.3927
H 2.1976 1.6178 -1.7963
H 4.5852 2.3479 -1.3254
H 3.5362 2.2843 0.1239
H 6.4917 2.2582 0.3711
H 8.0770 0.7388 1.5003
H 7.5110 -1.6477 1.8136
H 1.2847 -0.7598 1.1374
H 2.1345 0.8028 1.2079
H -0.3480 1.0359 1.0704
H 0.4540 1.8337 -0.3058
*
