! B3LYP 6-31G* SP

* xyz 0 1
C 1.9560 0.0532 2.6149
O 2.5117 -1.1625 2.1220
C 2.4843 -1.5575 0.7754
C 2.9965 -2.8150 0.4396
C 2.9758 -3.2561 -0.8846
C 2.4348 -2.4463 -1.8857
C 1.9138 -1.1816 -1.5748
N 1.3347 -0.3839 -2.6247
S 0.5224 1.1265 -2.3529
O -0.0937 1.6007 -3.6386
O 1.5675 2.1180 -1.9257
C -0.7721 0.9219 -1.1321
C -1.5951 -0.2334 -1.1673
C -1.5688 -1.2180 -2.3097
C -2.4445 -0.5139 -0.0913
C -2.5217 0.3370 1.0131
C -3.4105 -0.0436 2.1682
C -1.7997 1.5470 1.0111
N -1.8941 2.4359 2.1356
O -3.0030 2.8773 2.5012
O -0.7579 2.8195 2.8095
C -0.9618 1.8690 -0.0860
C -0.3049 3.2291 -0.1357
C 1.9572 -0.7358 -0.2389
H 2.0851 0.0906 3.7158
H 0.8706 0.0996 2.3822
H 2.4797 0.9233 2.1658
H 3.4091 -3.4541 1.2099
H 3.3731 -4.2313 -1.1348
H 2.4160 -2.8081 -2.9057
H 1.3640 -0.7373 -3.6074
H -2.5454 -1.7390 -2.4042
H -0.7863 -1.9832 -2.1301
H -1.3888 -0.7095 -3.2782
H -3.0388 -1.4209 -0.1047
H -4.3638 0.5213 2.1060
H -3.6423 -1.1301 2.1597
H -2.9095 0.1802 3.1333
H -0.8832 3.9856 0.4337
H -0.2744 3.6130 -1.1761
H 0.7200 3.1694 0.2864
H 1.5877 0.2435 0.0166
*
