! B3LYP 6-31G* SP

* xyz 0 1
C -2.4268 -0.9114 1.6590
C -2.6157 -1.6827 0.3763
C -3.2645 -2.9253 0.4866
C -3.5241 -3.7021 -0.6411
C -3.1440 -3.2499 -1.9005
C -2.4997 -2.0202 -2.0381
C -2.2231 -1.2104 -0.9148
C -1.4947 0.1148 -1.1574
N -0.1835 0.0943 -0.4944
C 0.9456 -0.5956 -1.0678
O 0.7981 -1.2235 -2.1533
C 2.2760 -0.6174 -0.3973
C 3.2250 -1.5905 -0.7792
C 4.4733 -1.6588 -0.1559
C 4.7997 -0.7498 0.8596
C 6.0363 -0.8058 1.5142
C 6.3284 0.1142 2.5245
C 5.3799 1.0811 2.8716
N 4.1831 1.1237 2.2288
C 3.8687 0.2409 1.2402
C 2.6219 0.3095 0.6088
C -2.3124 1.3448 -0.7715
N -3.5918 1.1545 -0.3278
C -4.4087 2.1742 0.0319
C -3.9525 3.4846 -0.0387
C -2.6687 3.7354 -0.5072
C -1.8312 2.6813 -0.9234
C -0.4520 3.0273 -1.4617
F -0.4227 4.3237 -1.9522
F 0.4808 2.9280 -0.4460
F -0.0892 2.1930 -2.5022
H -3.4217 -0.6449 2.0746
H -1.8866 -1.5464 2.3988
H -1.8555 0.0248 1.5400
H -3.5764 -3.2940 1.4568
H -4.0262 -4.6563 -0.5373
H -3.3473 -3.8564 -2.7736
H -2.2133 -1.7027 -3.0335
H -1.3292 0.2180 -2.2513
H -0.0824 0.5765 0.4226
H 2.9959 -2.3144 -1.5524
H 5.1777 -2.4253 -0.4607
H 6.7703 -1.5565 1.2479
H 7.2806 0.0758 3.0364
H 5.5955 1.7961 3.6558
H 1.9451 1.0958 0.9089
H -5.4098 1.9635 0.3803
H -4.5927 4.3013 0.2690
H -2.3354 4.7633 -0.5529
*
