! B3LYP 6-31G* SP

* xyz 0 1
C -2.9424 -2.8950 0.2844
N -3.7393 -1.6606 0.1383
C -3.2405 -0.4749 0.6025
O -2.1035 -0.4661 1.1458
C -3.9821 0.7240 0.4662
C -3.5355 1.9964 0.9660
C -2.2272 2.2208 1.7050
C -1.0596 2.2353 0.7588
O -1.1224 2.9328 -0.2897
N 0.1408 1.5199 1.0909
C 1.2083 1.2496 0.1713
N 2.3598 0.6590 0.5536
C 3.2145 0.4610 -0.4900
C 4.5414 -0.1800 -0.2912
C 4.8275 -0.8328 0.9195
C 6.0681 -1.4395 1.1250
C 7.0567 -1.4099 0.1357
O 8.2758 -2.0484 0.4279
C 9.4146 -2.1463 -0.4239
F 9.9022 -0.8860 -0.7195
F 10.4006 -2.8560 0.2334
F 9.0876 -2.8207 -1.5866
C 6.7802 -0.7495 -1.0828
F 7.6926 -0.6741 -2.0814
C 5.5357 -0.1424 -1.2863
C 2.7223 0.8915 -1.7272
S 1.1864 1.5322 -1.4872
C -4.3272 3.1350 0.7497
C -5.5404 3.0473 0.0885
C -5.9940 1.8245 -0.3820
C -5.2338 0.6426 -0.2107
N -5.6846 -0.5669 -0.6985
C -6.9792 -0.6544 -1.4104
C -4.9310 -1.7013 -0.5312
O -5.3358 -2.8017 -1.0049
H -2.3391 -2.8809 1.2173
H -2.2636 -3.0055 -0.5876
H -3.5919 -3.7933 0.3577
H -2.0996 1.4674 2.5090
H -2.2354 3.1955 2.2397
H 0.2400 1.1463 2.0616
H 4.0890 -0.8831 1.7098
H 6.2637 -1.9402 2.0651
H 5.3664 0.3690 -2.2233
H 3.2119 0.8128 -2.6871
H -4.0042 4.1086 1.0985
H -6.1367 3.9383 -0.0622
H -6.9481 1.8274 -0.8884
H -6.9537 -0.0194 -2.3216
H -7.2327 -1.6818 -1.7428
H -7.8024 -0.3266 -0.7403
*
