! B3LYP 6-31G* SP

* xyz 0 1
C -3.4959 1.3595 0.0667
C -2.5811 1.0305 1.2420
C -1.9458 -0.3307 1.0564
N -2.6026 -1.4127 1.3521
O -3.8620 -1.3809 1.9071
C -0.6264 -0.4661 0.3945
C -0.4936 -1.4858 -0.7091
C 0.4173 0.2782 0.8156
C 1.7859 0.1985 0.2630
C 2.4825 -1.0216 0.2016
C 3.7898 -1.0619 -0.2931
C 4.4175 0.1149 -0.7115
F 5.6859 0.0743 -1.1886
C 3.7413 1.3352 -0.6258
C 2.4340 1.3791 -0.1312
H -3.9483 2.3625 0.2165
H -4.3125 0.6108 -0.0126
H -2.9152 1.3690 -0.8806
H -3.1667 1.0549 2.1860
H -1.8129 1.8265 1.3191
H -4.3421 -2.2454 2.1222
H -0.1456 -2.4525 -0.2903
H 0.2093 -1.1392 -1.4957
H -1.4762 -1.6510 -1.2002
H 0.2654 1.0147 1.5945
H 2.0255 -1.9367 0.5544
H 4.3190 -2.0048 -0.3425
H 4.2304 2.2486 -0.9393
H 1.9229 2.3321 -0.0656
*
