! B3LYP 6-31G* SP

* xyz 0 1
C -3.0825 -1.9536 -1.2959
C -2.0970 -2.4417 -0.2570
C -1.1865 -1.5439 0.3478
N -1.0984 -0.1764 -0.0710
C -0.4465 0.1526 -1.3420
C 1.0445 0.2309 -1.1591
C 1.8141 -0.9420 -1.1370
C 3.1916 -0.8778 -0.9134
C 3.8266 0.3622 -0.7199
C 5.3059 0.4223 -0.4165
F 5.8263 1.6432 -0.8235
F 5.9683 -0.5660 -1.1233
C 5.5234 0.1713 1.0865
C 6.8015 0.7406 1.6863
C 5.4592 1.3904 1.9953
C 3.0477 1.5328 -0.7202
C 1.6698 1.4677 -0.9438
S -1.3926 1.0730 1.0986
O -0.0934 1.4827 1.7327
O -2.3132 0.5602 2.1698
C -2.1628 2.4466 0.3135
C -3.4479 2.3045 -0.2201
C -4.0635 3.3780 -0.8692
C -3.3976 4.6092 -1.0002
C -4.0419 5.7461 -1.6933
O -5.2053 5.6293 -2.1666
O -3.3682 6.9566 -1.8313
C -2.1055 4.7440 -0.4647
C -1.4931 3.6707 0.1888
N -0.3586 -1.9747 1.3355
C -0.3401 -3.2603 1.7611
C -1.1801 -4.2066 1.1707
C -1.1423 -5.5451 1.5900
C -1.9759 -6.4902 0.9930
C -2.8491 -6.1090 -0.0253
C -2.8997 -4.7791 -0.4504
C -2.0698 -3.8030 0.1436
H -3.1138 -0.8490 -1.3694
H -2.8118 -2.3645 -2.2908
H -4.1090 -2.2765 -1.0266
H -0.6849 -0.6175 -2.1076
H -0.8428 1.1137 -1.7338
H 1.3445 -1.9080 -1.2806
H 3.7608 -1.7982 -0.8801
H 5.1755 -0.7810 1.5415
H 7.4493 1.3393 1.0116
H 7.2165 0.1521 2.5306
H 5.3043 2.3716 1.4996
H 5.0820 1.1795 3.0179
H 3.5021 2.4983 -0.5383
H 1.0891 2.3818 -0.9364
H -3.9716 1.3603 -0.1365
H -5.0581 3.2424 -1.2714
H -3.7996 7.7408 -2.3054
H -1.5660 5.6782 -0.5511
H -0.4966 3.7967 0.5919
H 0.3442 -3.5437 2.5512
H -0.4663 -5.8599 2.3762
H -1.9422 -7.5219 1.3176
H -3.4889 -6.8480 -0.4898
H -3.5839 -4.5318 -1.2502
*
