! B3LYP 6-31G* SP

* xyz 0 1
C -0.0558 -1.1929 -3.5804
C -0.2030 -1.0540 -2.0588
C -1.2414 -1.9980 -1.4624
C -1.0416 -2.5094 -0.1663
C -2.0028 -3.3277 0.4336
C -3.1742 -3.6522 -0.2527
F -4.1062 -4.4446 0.3318
C -3.3848 -3.1607 -1.5422
C -2.4294 -2.3371 -2.1451
N -0.4624 0.3560 -1.6994
C -1.8180 0.9284 -1.7353
C -2.4310 0.8747 -0.3662
C -3.6497 0.2196 -0.1419
C -4.1656 0.1601 1.1529
C -3.4734 0.7571 2.2078
C -2.2621 1.4180 1.9499
C -1.4872 2.0533 3.0289
O -1.9087 2.0415 4.2172
O -0.2738 2.6687 2.7351
N -1.7829 1.4604 0.6773
C 0.6560 1.2549 -1.5765
O 0.7504 2.2313 -2.3690
C 1.6967 1.0528 -0.5421
C 1.4172 0.3344 0.6316
N 2.3730 0.1672 1.5832
C 3.6224 0.6821 1.4425
C 4.5813 0.4851 2.4429
C 5.8651 1.0197 2.2959
C 6.1945 1.7531 1.1512
C 5.2422 1.9558 0.1469
C 3.9520 1.4221 0.2864
C 2.9773 1.6068 -0.7019
H 0.8516 -0.6487 -3.9185
H 0.0553 -2.2619 -3.8619
H -0.9289 -0.7597 -4.1109
H 0.7834 -1.3554 -1.6395
H -0.1377 -2.2823 0.3820
H -1.8370 -3.7111 1.4321
H -4.2945 -3.4094 -2.0739
H -2.6327 -1.9599 -3.1374
H -2.4454 0.3920 -2.4766
H -1.7898 1.9877 -2.0702
H -4.1901 -0.2466 -0.9558
H -5.1011 -0.3513 1.3396
H -3.8792 0.7024 3.2103
H 0.2780 3.1058 3.4636
H 0.4337 -0.0744 0.8051
H 4.3344 -0.0803 3.3330
H 6.6060 0.8657 3.0698
H 7.1896 2.1647 1.0422
H 5.5125 2.5262 -0.7337
H 3.2179 2.1700 -1.5964
*
