! B3LYP 6-31G* SP

* xyz 0 1
C 6.3938 0.0909 0.9524
C 5.8899 -0.2526 -0.4432
N 4.5959 0.3747 -0.6784
N 4.4341 1.5887 -1.1745
N 3.1415 1.8694 -1.2000
C 2.5343 0.7782 -0.6906
C 1.0807 0.6185 -0.5075
S 0.3720 -0.7560 0.1541
C -1.2058 -0.1762 0.0236
C -2.4356 -0.9043 0.4418
C -2.3243 -2.1955 0.9961
C -3.4586 -2.9020 1.3969
C -4.7221 -2.3355 1.2528
C -4.8580 -1.0594 0.7072
C -3.7237 -0.3289 0.2960
O -3.8499 0.9578 -0.2547
C -5.0837 1.6411 -0.4518
N -1.2051 1.0617 -0.5221
C 0.0445 1.5104 -0.8189
O 0.2193 2.7700 -1.3896
N 3.4348 -0.1654 -0.3515
H 5.6775 -0.2763 1.7178
H 6.5085 1.1907 1.0568
H 7.3796 -0.3908 1.1228
H 5.7943 -1.3554 -0.5425
H 6.6216 0.1034 -1.2004
H -1.3592 -2.6676 1.1231
H -3.3567 -3.8928 1.8208
H -5.5998 -2.8867 1.5649
H -5.8534 -0.6488 0.6093
H -5.5971 1.7912 0.5213
H -5.7331 1.0651 -1.1443
H -4.8792 2.6342 -0.9015
H 1.1229 3.1481 -1.6329
*
