! B3LYP 6-31G* SP

* xyz 0 1
C -1.1946 1.5802 1.8152
C -0.2691 1.7852 0.6044
C -0.2650 3.2056 0.0660
C -1.4432 3.9683 -0.0541
C -1.4008 5.2593 -0.5896
C -0.1938 5.7952 -1.0362
C 0.9780 5.0380 -0.9549
Cl 2.4910 5.7011 -1.5376
C 0.9436 3.7518 -0.4054
N -0.5414 0.8250 -0.4826
C -1.8934 0.5968 -1.0154
C -2.3799 -0.7719 -0.6153
C -1.8470 -1.9148 -1.2306
C -2.2398 -3.1872 -0.8153
C -3.1801 -3.3326 0.2068
C -3.7394 -2.2003 0.8249
C -4.7354 -2.3488 1.9059
O -5.0102 -3.4879 2.3662
O -5.3854 -1.2301 2.4221
C -3.3328 -0.9213 0.4060
C 0.5772 0.3102 -1.2261
O 0.7236 0.6492 -2.4311
C 1.5457 -0.6195 -0.5983
C 1.2288 -1.2931 0.5939
N 2.1120 -2.1612 1.1515
C 3.3247 -2.4074 0.5901
C 4.2078 -3.3078 1.1963
C 5.4549 -3.5597 0.6170
C 5.8277 -2.9096 -0.5631
C 4.9503 -2.0102 -1.1770
C 3.6938 -1.7573 -0.6063
C 2.7907 -0.8657 -1.1994
H -2.2599 1.7551 1.5739
H -0.9036 2.2758 2.6299
H -1.0952 0.5420 2.1948
H 0.7497 1.5809 1.0062
H -2.3979 3.5795 0.2658
H -2.3112 5.8414 -0.6681
H -0.1700 6.7942 -1.4542
H 1.8593 3.1752 -0.3526
H -2.5971 1.3762 -0.6599
H -1.8893 0.6826 -2.1246
H -1.1130 -1.8228 -2.0223
H -1.8148 -4.0636 -1.2888
H -3.4679 -4.3314 0.5103
H -6.0794 -1.3203 3.1556
H -3.7497 -0.0410 0.8756
H 0.2713 -1.1501 1.0722
H 3.9304 -3.8106 2.1152
H 6.1336 -4.2574 1.0863
H 6.7960 -3.1066 -1.0057
H 5.2497 -1.5194 -2.0957
H 3.0604 -0.3592 -2.1192
*
