! B3LYP 6-31G* SP

* xyz 0 1
O 5.9791 -0.1787 0.9492
C 5.1480 0.4927 0.2785
N 5.5989 1.2468 -0.8596
C 7.0128 1.3562 -1.2163
C 7.4999 0.0844 -1.9078
O 6.7690 -0.1275 -3.0836
C 3.7183 0.4755 0.6723
C 3.2035 -0.6166 1.3942
C 1.8589 -0.6470 1.7741
C 1.0111 0.4188 1.4511
S -0.6891 0.3671 1.8985
O -1.1701 1.7586 2.2047
O -0.8795 -0.4772 3.1274
N -1.6021 -0.2984 0.5825
C -1.5411 -1.7317 0.2910
C -2.8686 -2.3773 0.5801
C -3.8479 -2.4621 -0.4241
C -5.0999 -3.0159 -0.1410
C -5.3851 -3.4820 1.1454
C -4.4194 -3.3921 2.1517
C -3.1664 -2.8373 1.8733
C -2.4218 0.5684 -0.2083
N -3.6315 0.9607 0.2731
C -4.4612 1.7709 -0.4347
C -4.0777 2.2473 -1.6982
C -5.0128 3.1006 -2.5168
F -5.8229 3.8655 -1.6953
F -5.8078 2.2834 -3.2986
F -4.2987 3.9556 -3.3388
C -2.8409 1.8365 -2.2198
C -2.0016 1.0048 -1.4741
Cl -0.4367 0.5454 -2.1311
C 1.5164 1.5127 0.7391
C 2.8604 1.5453 0.3563
H 4.9072 1.7266 -1.4770
H 7.6198 1.5518 -0.3062
H 7.1521 2.2170 -1.9059
H 7.3843 -0.7871 -1.2268
H 8.5789 0.1997 -2.1539
H 7.1305 -0.9597 -3.4857
H 3.8382 -1.4553 1.6525
H 1.4798 -1.5046 2.3150
H -0.7490 -2.2162 0.9022
H -1.2594 -1.8888 -0.7721
H -3.6440 -2.0924 -1.4216
H -5.8505 -3.0807 -0.9185
H -6.3552 -3.9094 1.3632
H -4.6432 -3.7484 3.1490
H -2.4303 -2.7667 2.6639
H -5.4205 2.0379 -0.0110
H -2.5267 2.1623 -3.2037
H 0.8698 2.3412 0.4786
H 3.2249 2.4197 -0.1652
*
