! B3LYP 6-31G* SP

* xyz 0 1
C 4.8596 -3.5774 1.5774
C 4.8984 -2.2395 0.9108
O 5.9411 -1.4297 0.9584
C 5.6340 -0.3519 0.2719
C 4.3766 -0.4405 -0.2409
C 3.8754 -1.6703 0.1495
C 2.5083 -2.2411 -0.1155
C 1.4874 -1.6076 0.7784
O 1.6782 -1.5893 2.0251
N 0.2773 -1.0914 0.2003
C -0.7261 -0.5301 0.8154
S -0.8504 -0.2638 2.4791
C -2.3937 0.3903 2.3814
C -2.7794 0.3864 1.0420
C -4.1099 0.8549 0.6224
C -5.2325 0.0533 0.8463
C -6.4951 0.4891 0.4438
C -6.6703 1.7427 -0.1642
O -7.9938 2.0851 -0.5055
C -8.5553 3.3908 -0.6189
F -9.9264 3.2918 -0.4688
F -8.0630 4.2230 0.3738
F -8.2970 3.9195 -1.8706
C -5.5243 2.5520 -0.4044
Cl -5.5617 4.1058 -1.2329
C -4.2574 2.0920 -0.0126
N -1.8523 -0.1237 0.1707
C -2.0798 -0.2701 -1.2782
O -3.1796 -1.1189 -1.5349
P -2.7292 -2.7433 -1.2512
O -2.5454 -2.9776 0.2331
O -1.2940 -3.1152 -2.0694
O -3.9586 -3.7602 -1.8174
C 3.8556 0.6037 -0.9934
O 2.6968 0.5166 -1.4860
N 4.6326 1.7236 -1.1896
C 4.1270 2.8292 -2.0192
C 5.9189 1.7788 -0.6749
O 6.6377 2.7990 -0.8839
N 6.4272 0.7333 0.0637
C 7.7813 0.7976 0.6320
H 4.8321 -4.3773 0.8039
H 5.7635 -3.7156 2.2100
H 3.9549 -3.6520 2.2202
H 2.2399 -2.0809 -1.1823
H 2.5073 -3.3383 0.0600
H -2.9864 0.7451 3.2159
H -5.1283 -0.9144 1.3244
H -7.3543 -0.1464 0.6245
H -3.3824 2.7019 -0.2033
H -1.1636 -0.5984 -1.8173
H -2.3147 0.7297 -1.7011
H -1.1030 -4.0590 -1.8328
H -4.7982 -3.3424 -1.4968
H 3.0181 2.9079 -1.9602
H 4.4220 2.6635 -3.0753
H 4.5307 3.8055 -1.6736
H 8.5146 1.0688 -0.1598
H 8.0973 -0.1785 1.0581
H 7.8122 1.5643 1.4360
*
