! B3LYP 6-31G* SP

* xyz 0 1
C -7.2483 1.9306 0.4711
N -6.2224 0.9626 0.0504
C -4.9085 1.3601 -0.0499
O -4.5675 2.5522 0.1828
C -3.9568 0.4147 -0.4087
C -2.5880 0.4695 -0.5989
C -1.6997 1.6827 -0.5349
C -0.2706 1.3127 -0.2695
O 0.5777 1.4201 -1.1965
N 0.1105 0.8157 1.0228
C 1.4442 0.4175 1.3638
N 2.4973 0.4923 0.5219
C 3.6468 0.0484 1.1021
C 4.9365 0.0698 0.3712
C 5.1517 1.0548 -0.6065
C 6.3525 1.1022 -1.3140
C 7.3557 0.1686 -1.0582
C 7.1714 -0.8252 -0.0806
C 8.2365 -1.8671 0.1703
F 9.4509 -1.4935 -0.3787
F 8.4160 -2.0444 1.5309
F 7.8430 -3.0664 -0.3931
C 5.9470 -0.8848 0.6160
F 5.7283 -1.9035 1.4881
C 3.5032 -0.3691 2.4287
S 1.8887 -0.1852 2.8653
C -2.2333 -0.8227 -0.9864
O -3.2985 -1.6018 -0.9976
C -4.3308 -0.8685 -0.6548
N -5.6217 -1.2819 -0.5509
C -5.9743 -2.6898 -0.7694
C -6.5695 -0.3600 -0.1668
O -7.7674 -0.7300 -0.0078
H -6.9936 2.9596 0.1372
H -8.2354 1.6912 0.0214
H -7.3373 1.9201 1.5774
H -2.0373 2.3557 0.2804
H -1.7795 2.2379 -1.4950
H -0.6272 0.7265 1.7574
H 4.3912 1.7958 -0.8194
H 6.5051 1.8651 -2.0669
H 8.2725 0.2232 -1.6311
H 4.2888 -0.7126 3.0871
H -1.2383 -1.1580 -1.2474
H -6.9398 -2.7689 -1.3133
H -6.0615 -3.2075 0.2088
H -5.2083 -3.2086 -1.3844
*
