! B3LYP 6-31G* SP

* xyz 0 1
C -2.3965 -0.2912 1.4925
C -2.6570 -1.4653 0.5785
C -1.7643 -1.7536 -0.4814
N -0.6517 -0.8964 -0.7802
C -0.9272 0.2833 -1.6143
C 0.0532 1.3987 -1.3623
C -0.0888 2.2306 -0.2195
C 0.8642 3.2247 0.0699
C 1.9308 3.3675 -0.8101
C 3.0357 4.1905 -0.8165
Cl 3.4496 5.3987 0.3820
N 3.7853 3.9097 -1.9089
N 3.1828 2.9352 -2.5824
C 2.0590 2.5965 -1.9275
C 1.1408 1.5999 -2.2457
S 0.9285 -1.6356 -0.8168
O 0.8897 -2.9647 -0.1153
O 1.3252 -1.8599 -2.2496
C 2.1170 -0.6189 -0.0041
C 1.8472 -0.1144 1.2727
C 2.7434 0.7642 1.8882
C 3.9329 1.1396 1.2383
C 4.8643 2.1038 1.8634
O 4.6268 2.5695 3.0109
O 6.0100 2.5126 1.1851
C 4.2197 0.5942 -0.0247
C 3.3204 -0.2820 -0.6387
N -1.9836 -2.8321 -1.2797
C -3.0468 -3.6548 -1.1180
C -3.9915 -3.3939 -0.1224
C -5.1127 -4.2258 0.0238
C -6.0648 -3.9541 1.0073
C -5.9096 -2.8507 1.8452
C -4.7951 -2.0178 1.7151
C -3.8099 -2.2801 0.7352
H -3.0635 0.5530 1.2138
H -2.5655 -0.5735 2.5527
H -1.3447 0.0469 1.4383
H -1.9527 0.6644 -1.4108
H -0.9051 -0.0171 -2.6843
H -0.9328 2.1077 0.4448
H 0.7752 3.8462 0.9501
H 3.5418 2.5183 -3.4708
H 1.2808 0.9811 -3.1233
H 0.9343 -0.3852 1.7839
H 2.4986 1.1594 2.8653
H 6.6511 3.1775 1.6022
H 5.1300 0.8568 -0.5475
H 3.5517 -0.6701 -1.6220
H -3.1597 -4.5062 -1.7801
H -5.2553 -5.0812 -0.6256
H -6.9296 -4.5963 1.1143
H -6.6554 -2.6400 2.6015
H -4.7261 -1.1694 2.3802
*
