! B3LYP 6-31G* SP

* xyz 0 1
C 6.9590 1.4206 1.9995
C 6.0129 2.2077 1.1001
O 5.2920 1.3306 0.2368
C 4.2194 0.5394 0.6630
O 3.8051 0.6073 1.8532
N 3.5898 -0.3444 -0.2690
C 2.4634 -1.1935 0.1213
C 1.9336 -2.0081 -1.0644
C 1.3079 -1.1237 -2.1043
C 1.8894 -0.7023 -3.2964
N 1.0538 0.1283 -3.9605
C -0.0455 0.2399 -3.1945
C -1.1818 1.0013 -3.4553
C -2.2177 0.9846 -2.5045
C -2.1053 0.2188 -1.3204
O -3.1711 0.2466 -0.4096
C -3.1948 -0.4681 0.8226
C -4.4897 -0.1907 1.5281
C -5.6181 -0.9887 1.2769
C -6.8345 -0.7056 1.9063
C -6.9353 0.3815 2.7791
C -5.8211 1.1900 3.0204
C -4.6029 0.9102 2.3931
C -0.9343 -0.5444 -1.0887
C 0.0730 -0.5070 -2.0523
H 7.5501 2.1225 2.6247
H 6.3860 0.7447 2.6679
H 7.6552 0.8163 1.3802
H 6.6116 2.9042 0.4761
H 5.3101 2.8124 1.7137
H 3.9635 -0.3758 -1.2444
H 1.6479 -0.5634 0.5386
H 2.7980 -1.8955 0.9152
H 1.1711 -2.7286 -0.6985
H 2.7612 -2.5976 -1.5153
H 2.8723 -0.9816 -3.6530
H 1.2342 0.5943 -4.8774
H -1.2655 1.5899 -4.3596
H -3.1114 1.5688 -2.6831
H -3.0955 -1.5583 0.6271
H -2.3407 -0.1488 1.4592
H -5.5560 -1.8277 0.5949
H -7.6999 -1.3265 1.7143
H -7.8778 0.6002 3.2642
H -5.9024 2.0362 3.6904
H -3.7498 1.5506 2.5808
H -0.8095 -1.1425 -0.1966
*
