! B3LYP 6-31G* SP

* xyz 0 1
C 1.4726 2.3696 0.4209
C 0.8416 2.1481 -0.9371
C 0.1238 0.9602 -1.2173
N -0.0548 -0.0553 -0.2234
C -1.0632 0.1049 0.8264
C -2.2728 -0.7391 0.5309
C -3.1262 -0.4025 -0.5428
C -4.2500 -1.1925 -0.8285
F -5.0731 -0.8662 -1.8560
C -4.5112 -2.3095 -0.0318
C -3.6908 -2.6372 1.0162
C -2.5652 -1.8690 1.3218
C -4.1654 -3.8367 1.7438
C -5.4263 -4.2694 0.9715
C -5.6505 -3.2481 -0.1602
S 0.9739 -1.4527 -0.2555
O 0.2096 -2.6699 0.1816
O 1.4692 -1.6889 -1.6551
C 2.3377 -1.1789 0.8195
C 3.4900 -0.5405 0.3440
C 4.5508 -0.2651 1.2114
C 4.4727 -0.6248 2.5692
C 5.5933 -0.3263 3.4886
O 5.5447 -0.6905 4.6950
O 6.7141 0.3601 3.0292
C 3.3114 -1.2646 3.0392
C 2.2507 -1.5348 2.1701
N -0.4009 0.7555 -2.4538
C -0.2801 1.6602 -3.4549
C 0.4036 2.8594 -3.2391
C 0.5273 3.7998 -4.2739
C 1.2137 4.9951 -4.0576
C 1.7802 5.2608 -2.8116
C 1.6670 4.3325 -1.7722
C 0.9755 3.1156 -1.9673
H 1.0424 3.2786 0.8909
H 1.3134 1.5266 1.1203
H 2.5691 2.4944 0.3054
H -1.3758 1.1696 0.9023
H -0.6183 -0.1665 1.8080
H -2.9198 0.4675 -1.1516
H -1.9318 -2.1456 2.1553
H -4.4175 -3.5674 2.7934
H -3.3908 -4.6337 1.7260
H -6.3061 -4.2893 1.6512
H -5.2846 -5.2872 0.5481
H -6.6090 -2.7049 -0.0168
H -5.6321 -3.7440 -1.1547
H 3.5607 -0.2396 -0.6940
H 5.4287 0.2336 0.8199
H 7.4863 0.5706 3.6502
H 3.2179 -1.5481 4.0804
H 1.3575 -2.0111 2.5539
H -0.7214 1.4403 -4.4192
H 0.0941 3.6095 -5.2488
H 1.3072 5.7173 -4.8588
H 2.3127 6.1893 -2.6492
H 2.1237 4.5808 -0.8232
*
