! B3LYP 6-31G* SP

* xyz 0 1
C -4.2440 -4.3918 1.3362
C -3.1146 -3.5068 1.8539
C -3.3326 -2.0755 1.4522
S -4.1120 -0.9479 2.4342
C -3.9920 0.3264 1.3408
C -3.3504 -0.0978 0.1925
C -2.9860 -1.4702 0.2300
C -2.2332 -2.1909 -0.8676
C -0.7753 -1.8209 -0.8921
O -0.2407 -1.2797 0.1219
N 0.0130 -2.1408 -2.0534
C 1.3755 -1.7268 -2.2291
N 2.0461 -0.9442 -1.3582
C 3.3204 -0.6830 -1.7712
C 4.2355 0.1628 -0.9553
C 3.7556 0.7816 0.2138
C 4.5957 1.5739 0.9994
F 4.1019 2.1578 2.1200
C 5.9368 1.7677 0.6440
O 6.7218 2.5725 1.4882
C 8.1222 2.8059 1.3635
F 8.8164 1.6166 1.5029
F 8.5226 3.6743 2.3605
C 6.4269 1.1560 -0.5317
F 7.7086 1.3209 -0.9429
C 5.5822 0.3634 -1.3170
C 3.6579 -1.2710 -2.9990
S 2.3213 -2.1285 -3.5575
C -3.1258 0.8424 -0.8234
O -2.5583 0.4968 -1.8960
N -3.5249 2.1461 -0.6391
C -3.3141 3.1381 -1.7087
C -4.1830 2.5206 0.5143
O -4.5612 3.7192 0.6571
N -4.4306 1.6055 1.5109
C -5.0818 2.0026 2.7708
H -4.0571 -5.4459 1.6357
H -4.3029 -4.3413 0.2271
H -5.2159 -4.0663 1.7681
H -2.1367 -3.8719 1.4733
H -3.0821 -3.5771 2.9628
H -2.3116 -3.2898 -0.7514
H -2.6972 -1.9625 -1.8496
H -0.4319 -2.6921 -2.8216
H 2.7252 0.6562 0.5252
H 8.3509 3.2741 0.3832
H 5.9981 -0.0904 -2.2056
H 4.5997 -1.1988 -3.5264
H -3.1029 4.1440 -1.2851
H -4.2210 3.1937 -2.3481
H -2.4380 2.8800 -2.3428
H -5.6879 2.9250 2.6505
H -4.3088 2.1773 3.5492
H -5.7795 1.2105 3.1189
*
