! B3LYP 6-31G* SP

* xyz 0 1
C -2.1450 2.9218 -2.6225
C -1.5000 3.0706 -1.2621
C -0.6237 2.0744 -0.7689
N -0.3872 0.8612 -1.4960
C -1.4297 -0.1673 -1.5657
C -1.1991 -1.2183 -0.5251
C -0.8575 -2.5461 -0.7822
C -0.5860 -3.2615 0.3887
C -0.1692 -4.5941 0.4672
F -0.0112 -5.3420 -0.6534
C 0.1039 -5.1450 1.7307
C -0.0404 -4.3659 2.8956
F 0.2355 -4.9066 4.1076
C -0.4604 -3.0294 2.8064
C -0.7266 -2.5059 1.5439
S -1.1847 -0.9412 1.1447
S 1.2146 0.5217 -2.0820
O 1.1284 0.0937 -3.5204
O 2.0600 1.7627 -2.0086
C 1.9654 -0.7403 -1.1077
C 2.2302 -0.5081 0.2471
C 2.7363 -1.5313 1.0531
C 2.9939 -2.8030 0.5115
C 3.4866 -3.9026 1.3692
O 3.7020 -3.7082 2.5962
O 3.7072 -5.1675 0.8305
C 2.7564 -3.0214 -0.8564
C 2.2464 -1.9971 -1.6597
N 0.0093 2.2534 0.4198
C -0.1810 3.3511 1.1897
C -1.0684 4.3491 0.7811
C -1.2867 5.4758 1.5890
C -2.1804 6.4672 1.1833
C -2.8628 6.3413 -0.0264
C -2.6532 5.2261 -0.8420
C -1.7473 4.2130 -0.4560
H -3.2327 2.7361 -2.5015
H -1.9888 3.8439 -3.2204
H -1.7090 2.0923 -3.2144
H -2.4322 0.2818 -1.3981
H -1.4342 -0.6227 -2.5791
H -0.7697 -2.9618 -1.7779
H 0.4355 -6.1723 1.8086
H -0.5633 -2.4189 3.6941
H 2.0224 0.4578 0.6868
H 2.9093 -1.3310 2.1030
H 4.0359 -5.9299 1.4109
H 2.9439 -3.9897 -1.3030
H 2.0439 -2.1975 -2.7035
H 0.3525 3.4343 2.1286
H -0.7686 5.5875 2.5341
H -2.3473 7.3338 1.8101
H -3.5596 7.1107 -0.3335
H -3.2134 5.1656 -1.7649
*
