! B3LYP 6-31G* SP

* xyz 0 1
C -1.1930 0.8037 1.2568
C -1.3073 1.6657 0.0199
C -1.6124 1.0869 -1.2346
N -1.7817 -0.3296 -1.3809
C -0.7868 -1.0924 -2.1412
C 0.5867 -0.8853 -1.5589
C 0.9758 -1.5855 -0.4077
C 2.2023 -1.3134 0.2034
C 3.0700 -0.3453 -0.3366
C 4.3751 0.0047 0.3456
F 5.3702 0.0952 -0.6162
F 4.7467 -0.9966 1.2285
C 4.2311 1.3266 1.1387
C 3.0998 1.4492 2.1684
C 4.6389 2.6237 0.4453
C 5.5365 2.0169 1.5211
C 2.6734 0.3565 -1.4880
C 1.4419 0.0910 -2.0913
S -3.3661 -0.9928 -1.1161
O -4.0176 -0.3064 0.0513
O -4.2011 -0.7585 -2.3439
C -3.2750 -2.7179 -0.7624
C -3.8873 -3.6548 -1.6066
C -3.8077 -5.0213 -1.3187
C -3.1060 -5.4708 -0.1853
C -3.0161 -6.9142 0.1247
O -3.5514 -7.7657 -0.6363
O -2.3402 -7.3468 1.2628
C -2.4901 -4.5264 0.6536
C -2.5789 -3.1609 0.3687
N -1.6899 1.8670 -2.3448
C -1.5028 3.2078 -2.3072
C -1.2145 3.8422 -1.0965
C -1.0187 5.2314 -1.0558
C -0.7240 5.8636 0.1528
C -0.6256 5.1170 1.3264
C -0.8227 3.7336 1.3017
C -1.1151 3.0706 0.0885
H -2.0336 1.0297 1.9486
H -1.2172 -0.2782 1.0253
H -0.2256 0.9928 1.7643
H -0.8110 -0.7717 -3.2054
H -1.0287 -2.1751 -2.1291
H 0.3169 -2.3235 0.0324
H 2.4609 -1.8481 1.1073
H 2.1233 1.4548 1.6414
H 3.1306 0.5841 2.8638
H 3.1744 2.3842 2.7647
H 5.0535 2.5348 -0.5797
H 4.1063 3.5400 0.7767
H 5.5333 2.5893 2.4735
H 6.4683 1.5658 1.1186
H 3.3105 1.1245 -1.9096
H 1.1458 0.6625 -2.9616
H -4.4269 -3.3319 -2.4878
H -4.2936 -5.7249 -1.9836
H -2.2773 -8.3331 1.4848
H -1.9378 -4.8422 1.5314
H -2.1016 -2.4503 1.0299
H -1.5749 3.7757 -3.2274
H -1.0950 5.8265 -1.9579
H -0.5743 6.9355 0.1802
H -0.3973 5.6125 2.2615
H -0.7453 3.1974 2.2377
*
