! B3LYP 6-31G* SP

* xyz 0 1
C 1.4508 3.1091 0.3059
C 2.6939 2.2869 0.2017
O 3.6691 2.3274 1.0910
C 4.5788 1.4596 0.7170
C 4.2124 0.8315 -0.4333
C 2.9869 1.3601 -0.7997
C 2.1147 0.9650 -1.9568
C 1.1985 -0.1525 -1.5585
O 1.6597 -1.3220 -1.4752
N -0.1806 0.1214 -1.2591
C -1.1390 -0.8524 -0.8183
N -2.4416 -0.5503 -0.6388
C -3.1732 -1.6200 -0.2121
C -4.6373 -1.5032 0.0338
C -5.2983 -0.2951 -0.2554
C -6.6720 -0.1609 -0.0383
C -7.4198 -1.2358 0.4751
O -8.8024 -1.1538 0.7104
C -9.6094 0.0012 0.4882
F -9.5868 0.3479 -0.8506
F -9.1542 1.0570 1.2571
F -10.9109 -0.2846 0.8503
C -6.7677 -2.4394 0.7642
F -7.4724 -3.4885 1.2566
C -5.3926 -2.5744 0.5497
C -2.4293 -2.7938 -0.0455
S -0.8300 -2.4624 -0.4463
C 5.0324 -0.1486 -0.9802
O 4.6813 -0.7619 -2.0253
N 6.2258 -0.4303 -0.3548
C 7.1097 -1.4811 -0.8882
C 6.5714 0.2251 0.8146
O 7.6641 -0.0473 1.3866
N 5.7379 1.1717 1.3651
C 6.1129 1.9002 2.5833
H 0.5863 2.4491 0.5195
H 1.2760 3.6552 -0.6437
H 1.5518 3.8459 1.1293
H 1.5248 1.8424 -2.2957
H 2.7368 0.6514 -2.8207
H -0.5255 1.0988 -1.3851
H -4.7553 0.5522 -0.6546
H -7.1393 0.7837 -0.2757
H -4.9333 -3.5205 0.7912
H -2.7907 -3.7593 0.2764
H 6.9253 -2.4316 -0.3459
H 6.9466 -1.6490 -1.9736
H 8.1751 -1.1946 -0.7727
H 6.5745 1.2136 3.3206
H 5.2293 2.3563 3.0730
H 6.8348 2.7005 2.3291
*
