! B3LYP 6-31G* SP

* xyz 0 1
C 7.7067 -1.2788 0.2169
C 6.2156 -1.5538 0.0237
C 5.4021 -0.2752 -0.2292
C 5.2576 0.5912 1.0337
C 4.4198 1.8533 0.7805
C 2.9700 1.5293 0.5224
C 2.4622 1.5295 -0.7852
C 1.1236 1.2059 -1.0252
C 0.2692 0.8633 0.0421
C -1.1618 0.5216 -0.1545
C -1.6712 0.0871 -1.3170
C -3.0974 -0.2494 -1.5042
O -3.5595 -0.2422 -2.6769
N -3.9530 -0.5907 -0.3978
C -5.3583 -0.8460 -0.5504
C -5.7882 -1.8047 -1.4846
C -7.1391 -2.1352 -1.5936
C -8.0761 -1.5241 -0.7627
C -7.6666 -0.5765 0.1770
C -6.3092 -0.2191 0.2950
C -5.9234 0.8281 1.2742
O -6.6905 1.1094 2.2346
O -4.7323 1.5347 1.1310
C 0.7814 0.8775 1.3499
C 2.1201 1.1998 1.5878
H 8.2547 -2.2429 0.2722
H 7.8868 -0.7262 1.1618
H 8.1085 -0.6936 -0.6375
H 6.0980 -2.2236 -0.8557
H 5.8172 -2.0923 0.9110
H 4.3921 -0.5830 -0.5752
H 5.8724 0.3165 -1.0449
H 6.2629 0.9175 1.3736
H 4.7990 -0.0051 1.8528
H 4.4869 2.5111 1.6745
H 4.8524 2.4270 -0.0686
H 3.1031 1.7823 -1.6209
H 0.7648 1.2496 -2.0436
H -1.8074 0.6255 0.7066
H -1.0367 -0.0107 -2.1866
H -3.5573 -0.6706 0.5641
H -5.0704 -2.3189 -2.1110
H -7.4583 -2.8764 -2.3150
H -9.1232 -1.7851 -0.8463
H -8.4176 -0.1098 0.8025
H -4.4704 2.2548 1.7936
H 0.1454 0.6272 2.1906
H 2.4954 1.1917 2.6037
*
