! B3LYP 6-31G* SP

* xyz -1 1
C 0.2757 2.4362 3.5419
C -0.5263 2.6710 2.2807
C -0.7333 1.6207 1.3544
N -0.1228 0.3356 1.5337
C 1.3216 0.1757 1.3359
C 1.5999 -0.4684 0.0061
C 1.2763 0.1144 -1.2158
C 1.6107 -0.8249 -2.1638
C 1.4648 -0.7904 -3.5485
C 1.8707 -1.9195 -4.2799
C 2.4097 -3.0430 -3.6180
C 2.5435 -3.0510 -2.2179
C 2.1248 -1.9175 -1.5101
N 2.1140 -1.7160 -0.1738
C 2.6136 -2.6198 0.8649
S -1.1337 -1.0556 1.7969
O -0.5967 -1.8328 2.9662
O -2.5332 -0.6152 2.1245
C -1.1767 -2.0654 0.3521
C -0.6901 -3.3790 0.3827
C -0.6404 -4.1402 -0.7887
C -1.0865 -3.6017 -2.0077
C -0.9954 -4.3945 -3.2529
O -1.3830 -3.9114 -4.3498
O -0.4724 -5.6823 -3.2311
C -1.6062 -2.2954 -2.0256
C -1.6539 -1.5366 -0.8532
N -1.5161 1.8215 0.2626
C -2.1022 3.0125 -0.0061
C -1.8993 4.1017 0.8442
C -2.4842 5.3440 0.5544
C -2.2719 6.4335 1.3994
C -1.4744 6.2931 2.5348
C -0.8880 5.0611 2.8372
C -1.0958 3.9413 2.0011
H -0.2875 2.8031 4.4253
H 1.2469 2.9689 3.4711
H 0.4741 1.3618 3.7283
H 1.8265 1.1660 1.3548
H 1.7470 -0.4109 2.1738
H 0.8258 1.0840 -1.3837
H 1.0452 0.0743 -4.0462
H 1.7674 -1.9279 -5.3570
H 2.7171 -3.9077 -4.1915
H 2.9509 -3.9197 -1.7210
H 2.6812 -3.6613 0.4937
H 1.9219 -2.6326 1.7314
H 3.6175 -2.2843 1.1983
H -0.3235 -3.8090 1.3053
H -0.2374 -5.1439 -0.7414
H -1.9600 -1.8529 -2.9483
H -2.0410 -0.5281 -0.8926
H -2.7148 3.1091 -0.8939
H -3.1023 5.4724 -0.3265
H -2.7233 7.3905 1.1713
H -1.3075 7.1435 3.1834
H -0.2676 5.0030 3.7208
*
