! B3LYP 6-31G* SP

* xyz 0 1
C -0.4777 3.1087 2.0977
C 0.3429 2.1432 1.3007
O 1.2054 1.4404 1.8904
C 0.1244 1.9676 -0.1541
C -0.2948 0.7124 -0.6513
N -0.5070 -0.4034 0.2262
C 0.2707 -1.6304 0.0396
C 1.7074 -1.3924 0.4124
C 2.6179 -0.9198 -0.5451
C 3.9363 -0.6274 -0.1838
C 4.3616 -0.7984 1.1486
O 5.6689 -0.5091 1.5707
C 6.7087 0.0023 0.7396
F 6.3389 1.2272 0.2135
F 6.9834 -0.8870 -0.2837
F 7.8487 0.1709 1.5010
C 3.4478 -1.2667 2.1013
C 2.1297 -1.5582 1.7397
S -1.8949 -0.4222 1.2706
O -1.4479 -0.6220 2.6921
O -2.6343 0.8841 1.1794
C -2.9780 -1.7162 0.7715
C -3.0447 -2.9118 1.4976
C -3.8960 -3.9406 1.0826
C -4.6908 -3.7880 -0.0672
C -5.5923 -4.8777 -0.5023
O -6.3242 -4.7334 -1.5192
O -5.6413 -6.0745 0.2087
C -4.6121 -2.5870 -0.7962
C -3.7588 -1.5613 -0.3801
N -0.5006 0.5422 -1.9839
C -0.3262 1.5422 -2.8812
C 0.0995 2.8024 -2.4539
C 0.3003 3.8340 -3.3843
C 0.7591 5.0811 -2.9597
C 1.0310 5.3042 -1.6100
C 0.8330 4.2868 -0.6733
C 0.3444 3.0243 -1.0753
H -1.2110 3.6350 1.4515
H 0.1855 3.8566 2.5798
H -1.0315 2.5593 2.8866
H -0.1426 -2.4518 0.6643
H 0.1956 -1.9665 -1.0173
H 2.3024 -0.7630 -1.5691
H 4.6077 -0.2585 -0.9446
H 3.7597 -1.3959 3.1299
H 1.4341 -1.8982 2.4972
H -2.4358 -3.0526 2.3813
H -3.9301 -4.8547 1.6623
H -6.2556 -6.8265 -0.0804
H -5.2068 -2.4409 -1.6893
H -3.7043 -0.6465 -0.9578
H -0.5124 1.3466 -3.9298
H 0.1088 3.6733 -4.4387
H 0.9153 5.8735 -3.6803
H 1.4021 6.2684 -1.2876
H 1.0801 4.4963 0.3574
*
