! B3LYP 6-31G* SP

* xyz 0 1
N -3.8505 -0.3853 0.5028
C -2.5041 0.1755 0.4604
C -1.7692 -0.3140 -0.7883
C -0.3916 0.2741 -0.8549
C -0.0175 1.4370 -1.5217
N 1.2910 1.7042 -1.3061
C 1.7419 0.7277 -0.4993
C 3.0294 0.5840 0.0156
C 3.2800 -0.5100 0.8642
C 2.2488 -1.4236 1.1790
F 2.5039 -2.4708 2.0013
C 0.9579 -1.2517 0.6458
C 0.7421 -0.1610 -0.1969
H -4.3434 0.0333 1.3246
H -3.7715 -1.4106 0.6957
H -2.5727 1.2857 0.4350
H -1.9429 -0.1228 1.3748
H -1.6965 -1.4228 -0.7737
H -2.3404 -0.0196 -1.6954
H -0.6698 2.0581 -2.1217
H 1.8334 2.5142 -1.6804
H 3.8114 1.2921 -0.2262
H 4.2692 -0.6497 1.2805
H 0.1612 -1.9440 0.8848
*
