! B3LYP 6-31G* SP

* xyz 0 1
C -5.2644 1.4886 1.2042
C -3.8350 1.9700 0.9234
C -3.8827 3.2554 0.0775
C -2.8854 0.8912 0.2917
C -3.4299 0.1997 -0.9864
C -4.2519 -1.0697 -0.7261
C -3.5173 -2.0790 0.1634
C -2.3719 -2.7837 -0.5811
C -3.0794 -1.4285 1.4897
C -2.2852 -0.1073 1.3418
N -0.8686 -0.3836 1.0537
C 0.1536 0.6165 1.2058
O -0.1157 1.6995 1.7948
C 1.5250 0.3883 0.6915
C 1.7656 -0.5309 -0.3445
C 3.0613 -0.7324 -0.8283
C 4.1450 -0.0164 -0.2910
C 5.5221 -0.2314 -0.8046
C 6.6167 -0.2771 0.0798
C 7.9120 -0.4801 -0.4060
C 8.1300 -0.6383 -1.7764
C 7.0528 -0.5944 -2.6641
C 5.7552 -0.3926 -2.1839
C 3.9023 0.9103 0.7374
C 2.6065 1.1135 1.2197
H -5.2641 0.5661 1.8127
H -5.8121 2.2626 1.7834
H -5.8209 1.3208 0.2590
H -3.4014 2.2770 1.9008
H -2.8592 3.6578 -0.0787
H -4.3523 3.0731 -0.9110
H -4.4728 4.0363 0.6036
H -2.0204 1.4856 -0.0762
H -2.5712 -0.0652 -1.6402
H -4.0480 0.9048 -1.5787
H -5.2198 -0.8129 -0.2531
H -4.5006 -1.5435 -1.7009
H -4.2491 -2.8764 0.4242
H -1.6390 -2.0631 -0.9941
H -2.7829 -3.3747 -1.4270
H -1.8449 -3.4849 0.1002
H -3.9883 -1.2337 2.0949
H -2.4878 -2.1570 2.0868
H -2.3137 0.3672 2.3473
H -0.5581 -1.3672 0.8973
H 0.9537 -1.0836 -0.7987
H 3.2167 -1.4589 -1.6159
H 6.4691 -0.1738 1.1475
H 8.7473 -0.5180 0.2814
H 9.1335 -0.7950 -2.1503
H 7.2234 -0.7133 -3.7264
H 4.9374 -0.3449 -2.8919
H 4.7129 1.4923 1.1578
H 2.4518 1.8348 2.0127
*
