! B3LYP 6-31G* SP

* xyz 0 1
C -0.5152 -2.2070 -2.4360
C -1.3441 -1.3707 -1.4852
C -0.7180 -0.5644 -0.5097
N 0.7076 -0.4662 -0.4268
C 1.4448 0.3716 -1.3755
C 1.6594 1.7479 -0.8055
C 0.5853 2.6446 -0.7032
C 0.7736 3.9093 -0.1395
C 2.0345 4.3027 0.3243
O 2.1658 5.5849 0.8824
C 3.3813 6.1497 1.3707
F 3.8712 5.3936 2.4207
F 3.1297 7.4299 1.8251
F 4.3197 6.2127 0.3556
C 3.1147 3.4046 0.2168
C 2.9255 2.1378 -0.3428
S 1.5268 -1.1924 0.9199
O 2.2770 -0.1436 1.6919
O 0.5275 -1.8314 1.8441
C 2.6294 -2.4267 0.3252
C 2.1517 -3.7105 0.0380
C 3.0205 -4.6941 -0.4427
C 4.3811 -4.4035 -0.6503
C 5.3064 -5.4425 -1.1531
O 4.8841 -6.6010 -1.4152
O 6.6552 -5.1505 -1.3396
C 4.8506 -3.1078 -0.3731
C 3.9795 -2.1263 0.1088
N -1.4659 0.1437 0.3721
C -2.8207 0.1397 0.3611
N -3.5173 0.9591 1.3072
C -4.0683 2.2549 0.9493
C -4.2128 3.0170 2.2615
C -4.0757 1.9745 3.3689
C -3.3533 0.7921 2.7384
C -3.5088 -0.6363 -0.5911
C -4.9160 -0.6973 -0.6062
C -5.5806 -1.4634 -1.5628
C -4.8566 -2.1827 -2.5101
C -3.4614 -2.1525 -2.5006
C -2.7624 -1.3915 -1.5363
H 0.5652 -2.1993 -2.1898
H -0.6367 -1.8259 -3.4713
H -0.8408 -3.2671 -2.3892
H 2.4150 -0.1119 -1.6205
H 0.8828 0.4561 -2.3318
H -0.3985 2.3636 -1.0558
H -0.0659 4.5890 -0.0614
H 4.1022 3.6704 0.5653
H 3.7664 1.4579 -0.4069
H 1.1060 -3.9501 0.1839
H 2.6272 -5.6810 -0.6513
H 7.2981 -5.8553 -1.6810
H 5.8906 -2.8508 -0.5284
H 4.3589 -1.1331 0.3106
H -3.3815 2.7938 0.2599
H -5.0584 2.1257 0.4636
H -3.3930 3.7639 2.3521
H -5.1924 3.5404 2.3206
H -5.0878 1.6557 3.7047
H -3.5114 2.3780 4.2377
H -2.2721 0.8147 3.0012
H -3.8047 -0.1696 3.0672
H -5.5103 -0.1689 0.1270
H -6.6621 -1.5017 -1.5680
H -5.3791 -2.7732 -3.2521
H -2.9435 -2.7293 -3.2544
*
