! B3LYP 6-31G* SP

* xyz 0 1
O -0.6729 0.9057 1.7033
C -1.2018 0.2058 0.7971
N -0.6331 -1.0668 0.4519
C 0.6827 -1.5129 0.9144
C 1.8385 -0.8242 0.1347
C 1.6523 -1.0203 -1.4037
C 1.5333 -2.4712 -1.8048
C 0.3186 -2.9794 -2.2970
C 0.2142 -4.3244 -2.6639
C 1.3208 -5.1701 -2.5487
C 2.5339 -4.6715 -2.0674
C 2.6426 -3.3275 -1.6979
N 1.9409 0.6057 0.5598
C 2.5145 1.5302 -0.4497
C 2.7664 2.9201 0.1467
C 3.8376 2.8740 1.2780
O 3.5059 3.8145 2.2745
C 5.2270 3.2724 0.7242
F 6.1807 3.1802 1.7243
F 5.6006 2.4476 -0.3230
F 5.2006 4.5797 0.2694
C 3.9187 1.4518 1.9066
C 2.5503 0.7505 1.9165
C -2.4926 0.6622 0.1334
C -3.6681 -0.1517 0.7112
C -3.7927 -0.2742 2.1143
C -4.8544 -0.9795 2.6856
C -5.8262 -1.5633 1.8719
Cl -7.1603 -2.4464 2.5921
C -5.7408 -1.4314 0.4851
C -4.6810 -0.7259 -0.0932
C -2.7609 2.1626 0.3430
C -3.5980 2.5975 -0.8514
C -3.2065 1.6743 -2.0014
C -2.3333 0.5728 -1.4005
H -1.2110 -1.7358 -0.1042
H 0.7582 -2.6133 0.7758
H 0.7653 -1.3443 2.0078
H 2.7863 -1.3436 0.4044
H 0.7648 -0.4513 -1.7517
H 2.5291 -0.6178 -1.9520
H -0.5461 -2.3361 -2.3999
H -0.7237 -4.7107 -3.0406
H 1.2383 -6.2107 -2.8345
H 3.3917 -5.3258 -1.9813
H 3.5902 -2.9536 -1.3304
H 1.7957 1.6559 -1.2870
H 3.4687 1.1285 -0.8542
H 3.0630 3.6196 -0.6646
H 1.7984 3.2964 0.5459
H 2.6453 3.5433 2.6878
H 4.3058 1.5186 2.9471
H 4.6237 0.8052 1.3393
H 1.8516 1.3305 2.5537
H 2.6857 -0.2277 2.4262
H -3.0663 0.1825 2.7743
H -4.9225 -1.0657 3.7629
H -6.5015 -1.8701 -0.1488
H -4.6781 -0.6357 -1.1675
H -1.8060 2.7366 0.3221
H -3.2806 2.3829 1.3018
H -4.6764 2.4661 -0.6151
H -3.4102 3.6636 -1.1041
H -4.1130 1.2439 -2.4782
H -2.6380 2.2376 -2.7735
H -1.2797 0.7960 -1.6835
H -2.5656 -0.4316 -1.8133
*
