! B3LYP 6-31G* SP

* xyz 0 1
C -3.0387 1.5672 0.3208
C -2.1247 2.0896 -0.7667
C -0.9179 1.4201 -1.0813
N -0.5089 0.2470 -0.3694
C 0.0905 0.3614 0.9624
C 1.5508 0.0034 0.9184
C 2.4538 0.7899 0.1925
C 3.8034 0.4394 0.1373
C 4.2508 -0.7081 0.8143
C 5.6761 -1.1255 0.7860
C 6.5039 -0.8388 -0.3177
C 7.8414 -1.2472 -0.3252
C 8.3675 -1.9503 0.7610
C 7.5547 -2.2528 1.8538
C 6.2164 -1.8472 1.8671
N 3.3537 -1.4454 1.5292
C 2.0354 -1.1231 1.5966
S -0.7802 -1.3114 -1.0855
O 0.4420 -2.1722 -0.9321
O -1.0597 -1.1555 -2.5546
C -2.1584 -2.0725 -0.3026
C -3.4517 -1.8653 -0.7976
C -4.5522 -2.4371 -0.1529
C -4.3738 -3.2212 1.0019
C -5.5351 -3.8263 1.6912
O -6.7012 -3.6581 1.2446
O -5.3510 -4.5880 2.8423
C -3.0728 -3.4193 1.4967
C -1.9740 -2.8469 0.8488
N -0.1215 1.8819 -2.0803
C -0.4232 2.9902 -2.7988
C -1.5904 3.7072 -2.5262
C -1.9003 4.8611 -3.2628
C -3.0658 5.5760 -2.9883
C -3.9297 5.1459 -1.9811
C -3.6344 3.9991 -1.2398
C -2.4592 3.2588 -1.4991
H -2.6932 0.6112 0.7580
H -3.1034 2.3106 1.1429
H -4.0513 1.3833 -0.0958
H -0.0109 1.4006 1.3457
H -0.4606 -0.2959 1.6681
H 2.1140 1.6763 -0.3259
H 4.4867 1.0738 -0.4091
H 6.1181 -0.3228 -1.1859
H 8.4687 -1.0239 -1.1772
H 9.4033 -2.2658 0.7536
H 7.9624 -2.8005 2.6939
H 5.6078 -2.0880 2.7302
H 1.3668 -1.7488 2.1742
H -3.6108 -1.2525 -1.6760
H -5.5419 -2.2604 -0.5549
H -6.1393 -5.0085 3.3206
H -2.9027 -4.0132 2.3866
H -0.9808 -3.0018 1.2502
H 0.2543 3.3116 -3.5805
H -1.2406 5.2103 -4.0485
H -3.2992 6.4669 -3.5571
H -4.8323 5.7048 -1.7718
H -4.3309 3.7067 -0.4656
*
