! B3LYP 6-31G* SP

* xyz 0 1
C -3.3364 1.8521 1.7672
N -3.3127 0.6166 0.9592
C -2.6614 0.6080 -0.2433
O -2.0986 1.6648 -0.6360
C -2.6225 -0.5653 -1.0357
C -1.9206 -0.6565 -2.2878
C -1.1188 0.4746 -2.9102
C 0.1826 0.6853 -2.1884
O 0.9052 -0.3106 -1.9103
N 0.6227 2.0158 -1.8745
C 1.7656 2.3018 -1.0589
N 2.5243 1.3596 -0.4599
C 3.5355 1.9032 0.2743
C 4.4906 1.0471 1.0261
C 5.6855 1.5677 1.5593
C 6.5686 0.7425 2.2604
C 6.2793 -0.6129 2.4399
Cl 7.4172 -1.6171 3.3282
C 5.0952 -1.1474 1.9092
Cl 4.6935 -2.8479 2.1101
C 4.2108 -0.3209 1.2063
C 3.5687 3.3026 0.2597
S 2.2996 3.8506 -0.6998
C -1.9185 -1.8742 -2.9860
C -2.5955 -2.9792 -2.4989
C -3.2882 -2.9031 -1.3003
C -3.3196 -1.7071 -0.5437
N -4.0136 -1.6398 0.6470
C -4.7662 -2.8128 1.1453
C -4.0085 -0.4817 1.3830
O -4.6566 -0.4216 2.4671
H -3.4215 1.6285 2.8521
H -2.3950 2.4308 1.6507
H -4.1947 2.4843 1.4565
H -0.8770 0.2537 -3.9725
H -1.7241 1.4028 -2.9538
H 0.0691 2.8246 -2.2359
H 5.9541 2.6061 1.4274
H 7.4835 1.1596 2.6621
H 3.3000 -0.7510 0.8080
H 4.2628 3.9434 0.7841
H -1.3816 -1.9757 -3.9216
H -2.5813 -3.9076 -3.0559
H -3.7924 -3.8022 -0.9776
H -4.0685 -3.6556 1.3375
H -5.5331 -3.1153 0.4006
H -5.3071 -2.6207 2.0944
*
