! B3LYP 6-31G* SP

* xyz 0 1
C 0.5917 -2.1992 -3.4764
C 1.0966 -1.8208 -2.1011
C 0.7935 -0.5520 -1.5569
N -0.1421 0.3406 -2.1861
C -1.5666 -0.0075 -2.3023
C -2.0823 -0.6613 -1.0437
C -2.6832 -1.9303 -1.1010
C -3.1510 -2.5446 0.0646
C -3.0119 -1.9024 1.3112
O -3.4259 -2.4887 2.5176
C -4.0762 -3.7524 2.6421
F -5.2870 -3.7303 1.9739
F -4.3091 -4.0049 3.9796
F -3.2750 -4.7577 2.1334
C -2.4309 -0.6294 1.3612
C -1.9760 -0.0074 0.1943
S 0.3620 1.9571 -2.5690
O 1.8575 2.0738 -2.4571
O -0.0288 2.2793 -3.9844
C -0.3978 3.0916 -1.4563
C -1.6011 3.7201 -1.8002
C -2.2161 4.6021 -0.9062
C -1.6348 4.8662 0.3484
C -2.2692 5.8138 1.2916
O -3.3620 6.3715 0.9985
O -1.6577 6.1073 2.5067
C -0.4303 4.2252 0.6892
C 0.1824 3.3456 -0.2084
N 1.3454 -0.1725 -0.3745
C 2.1499 -0.9817 0.3602
O 2.6911 -0.5256 1.5721
C 2.5422 0.8088 2.0572
C 3.5129 1.7404 1.3266
C 2.8171 0.8204 3.5591
C 2.4180 -2.2842 -0.0873
C 3.2101 -3.1591 0.6792
C 3.4540 -4.4601 0.2379
C 2.9170 -4.9010 -0.9684
C 2.1302 -4.0471 -1.7440
C 1.8780 -2.7196 -1.3268
H -0.2994 -2.8558 -3.3796
H 1.3822 -2.7174 -4.0592
H 0.3289 -1.3030 -4.0764
H -2.1734 0.9015 -2.4966
H -1.7132 -0.6732 -3.1781
H -2.7843 -2.4493 -2.0470
H -3.6084 -3.5211 -0.0163
H -2.3257 -0.1214 2.3125
H -1.5275 0.9756 0.2582
H -2.0643 3.5274 -2.7609
H -3.1423 5.0786 -1.2018
H -2.0750 6.7655 3.1521
H 0.0422 4.4042 1.6459
H 1.1078 2.8614 0.0702
H 1.4976 1.1583 1.8976
H 4.5631 1.4134 1.4920
H 3.3091 1.7262 0.2357
H 3.3912 2.7819 1.6922
H 2.0998 0.1448 4.0715
H 2.6920 1.8447 3.9692
H 3.8507 0.4668 3.7672
H 3.6376 -2.8443 1.6230
H 4.0591 -5.1290 0.8356
H 3.1034 -5.9139 -1.3032
H 1.7135 -4.4459 -2.6582
*
