! B3LYP 6-31G* SP

* xyz 0 1
O 2.0257 0.3258 1.8421
C 1.6515 0.2350 0.6409
N 2.6051 0.4216 -0.4188
C 4.0272 0.2903 -0.2490
C 4.5752 -0.6233 0.6680
C 5.9614 -0.7486 0.7971
C 6.8240 0.0214 0.0088
O 8.2075 -0.1449 0.1832
C 9.2189 0.5568 -0.5366
F 10.4578 0.1345 -0.0951
F 9.1060 1.9174 -0.3135
F 9.1132 0.2900 -1.8899
C 6.2766 0.9224 -0.9245
C 4.8901 1.0472 -1.0545
N 0.2619 -0.0093 0.3431
C -0.7803 0.5251 1.2297
C -1.9413 -0.4662 1.3584
C -2.4729 -0.9049 -0.0282
C -1.3066 -1.4911 -0.8521
C -0.1417 -0.5034 -0.9793
C -3.5825 -1.9758 0.1136
C -4.8624 -1.4165 0.7628
O -5.8971 -2.3495 0.5713
C -5.2533 -0.0764 0.1721
C -6.5410 0.4478 0.3854
C -6.8931 1.6939 -0.1403
C -5.9619 2.4356 -0.8698
C -4.6706 1.9395 -1.0650
F -3.7655 2.6733 -1.7593
C -4.3067 0.6966 -0.5334
O -3.0015 0.2295 -0.7215
H 2.2525 0.7760 -1.3363
H 3.9361 -1.2571 1.2682
H 6.3687 -1.4551 1.5093
H 6.9092 1.5296 -1.5560
H 4.4863 1.7433 -1.7790
H -0.3800 0.7277 2.2462
H -1.1520 1.4878 0.8163
H -1.5924 -1.3561 1.9278
H -2.7457 0.0221 1.9479
H -1.6603 -1.7587 -1.8720
H -0.9339 -2.4210 -0.3673
H 0.6995 -1.0351 -1.4748
H -0.4378 0.3555 -1.6199
H -3.8427 -2.3591 -0.8990
H -3.2136 -2.8385 0.7113
H -4.6695 -1.2745 1.8522
H -6.4450 -2.3601 1.3993
H -7.2747 -0.1063 0.9566
H -7.8891 2.0861 0.0203
H -6.2392 3.3997 -1.2762
*
