! B3LYP 6-31G* SP

* xyz 0 1
C 2.3927 -2.8578 -1.8938
C 2.4822 -1.3516 -2.1057
O 1.3654 -0.6964 -1.5101
C 0.0922 -0.6507 -2.0916
O -0.1048 -1.1364 -3.2385
C -1.0249 -0.0172 -1.3711
S -2.5530 0.2568 -2.0189
C -3.1533 0.9752 -0.6156
C -4.5203 1.5137 -0.4353
C -4.8993 2.0811 0.7961
C -6.1865 2.5979 0.9723
C -7.1094 2.5535 -0.0750
C -6.7468 1.9912 -1.3017
F -7.6442 1.9483 -2.3176
C -5.4597 1.4733 -1.4835
N -2.2059 1.0072 0.3501
C -1.0297 0.4623 -0.0588
C 0.0974 0.3747 0.8294
C 1.0565 0.2816 1.5535
C 2.2402 0.1456 2.4075
C 3.4307 -0.3382 1.5758
C 4.6679 -0.5514 2.4513
C 5.8220 -1.0155 1.6206
O 6.7753 -0.2322 1.3690
O 5.8270 -2.3058 1.1015
H 3.2969 -3.3479 -2.3150
H 1.4944 -3.2650 -2.4016
H 2.3312 -3.0850 -0.8079
H 3.4090 -0.9774 -1.6219
H 2.5412 -1.1155 -3.1907
H -4.2018 2.1272 1.6231
H -6.4689 3.0334 1.9229
H -8.1048 2.9558 0.0648
H -5.2044 1.0444 -2.4432
H 2.0156 -0.5831 3.2144
H 2.4695 1.1324 2.8637
H 3.6611 0.4171 0.7907
H 3.1663 -1.2976 1.0761
H 4.4537 -1.3180 3.2254
H 4.9345 0.3985 2.9652
H 6.5948 -2.6285 0.5239
*
