! B3LYP 6-31G* SP

* xyz 0 1
N 4.4177 5.7239 -1.3118
C 3.1708 5.6794 -0.6121
O 2.5581 6.7589 -0.3885
C 2.5978 4.3983 -0.1345
C 2.9306 3.1782 -0.7503
C 2.3754 1.9795 -0.2933
C 1.4739 1.9801 0.7775
S 0.7622 0.4681 1.3353
O 1.7950 -0.2809 2.1304
O -0.4168 0.7478 2.2253
N 0.2291 -0.5031 -0.0114
C -0.5317 0.1006 -1.1143
C -1.6714 0.9514 -0.6153
C -1.5583 2.3500 -0.5915
C -2.5957 3.1338 -0.0810
C -3.7688 2.5392 0.3977
O -4.7788 3.3757 0.8998
C -6.0418 2.9352 1.3949
F -6.7378 2.2711 0.3996
F -5.8634 2.1004 2.4844
F -6.7749 4.0361 1.7928
C -3.8918 1.1369 0.3550
C -2.8498 0.3526 -0.1482
C 0.9345 -1.7240 -0.2763
N 2.2471 -1.6570 -0.6203
C 2.9696 -2.7528 -0.9551
C 2.3584 -4.0076 -1.0017
C 3.0895 -5.1364 -1.4025
C 2.4682 -6.3831 -1.4794
C 1.1148 -6.5111 -1.1651
C 0.3761 -5.3958 -0.7623
C 0.9899 -4.1283 -0.6514
C 0.2812 -2.9771 -0.2156
C -1.1565 -3.0588 0.2608
C -1.3956 -3.9708 1.4625
C -1.4221 -2.4712 1.6464
C 1.1395 3.1908 1.3959
C 1.6894 4.3912 0.9388
H 4.7697 6.6309 -1.6925
H 5.0394 4.8880 -1.3775
H 3.5993 3.1458 -1.5997
H 2.6407 1.0531 -0.7840
H 0.1566 0.7032 -1.7445
H -0.9466 -0.6964 -1.7700
H -0.6647 2.8355 -0.9625
H -2.4877 4.2106 -0.0577
H -4.7847 0.6408 0.7072
H -2.9662 -0.7214 -0.1801
H 4.0141 -2.6354 -1.2155
H 4.1386 -5.0531 -1.6612
H 3.0347 -7.2513 -1.7904
H 0.6341 -7.4785 -1.2396
H -0.6764 -5.5367 -0.5548
H -1.9905 -2.9994 -0.4691
H -2.3987 -4.4471 1.4842
H -0.4962 -4.4561 1.9003
H -0.5453 -2.1046 2.2204
H -2.4460 -2.0731 1.8088
H 0.4492 3.2103 2.2284
H 1.4133 5.3134 1.4342
*
