! B3LYP 6-31G* SP

* xyz 0 1
C -6.0962 -0.8508 -0.1136
C -4.6270 -1.0091 -0.3068
N -3.7129 -0.1087 0.1002
C -2.5626 -0.7088 -0.2702
C -1.2154 -0.1465 -0.0612
S 0.2002 -0.9292 -0.5270
C 1.2167 0.2926 0.0301
C 2.6958 0.2934 -0.0473
C 3.3917 -0.7864 -0.6234
C 4.7884 -0.7734 -0.6904
C 5.5049 0.3134 -0.1850
C 4.8262 1.3908 0.3890
F 5.5228 2.4456 0.8795
C 3.4292 1.3829 0.4585
N 0.4967 1.3010 0.5719
C -0.8437 1.0720 0.5278
O -1.7315 2.0144 1.0444
N -2.7753 -1.9028 -0.8595
O -4.0643 -2.0532 -0.8606
H -6.6435 -1.4711 -0.8538
H -6.3711 -1.1759 0.9111
H -6.3826 0.2129 -0.2509
H 2.8621 -1.6413 -1.0228
H 5.3157 -1.6076 -1.1349
H 6.5860 0.3197 -0.2387
H 2.9235 2.2285 0.9077
H -2.7338 1.8973 1.0357
*
