! B3LYP 6-31G* SP

* xyz 0 1
N -1.4346 6.5613 -3.7832
C -1.0698 5.5522 -3.3498
C -0.6161 4.2972 -2.8108
C 0.0991 3.4006 -3.6109
N 0.5216 2.2164 -3.0946
C 0.2749 1.8642 -1.8033
N 0.7345 0.5972 -1.3208
C 0.0899 -0.6311 -1.7881
C -1.2484 -0.7947 -1.1213
C -2.3900 -0.1861 -1.6693
C -3.6224 -0.2839 -1.0162
C -3.7226 -0.9835 0.1895
C -2.5902 -1.5859 0.7444
C -1.3563 -1.4905 0.0944
S 2.2299 0.5181 -0.4412
O 3.3288 0.0710 -1.3641
O 2.5814 1.8779 0.0959
C 2.0746 -0.6055 0.9060
C 1.5182 -0.1780 2.1175
C 1.3503 -1.0784 3.1732
C 1.7392 -2.4226 3.0320
C 1.5577 -3.3818 4.1435
O 1.0511 -3.0059 5.2353
O 1.9449 -4.7110 3.9938
C 2.3024 -2.8444 1.8152
C 2.4681 -1.9419 0.7606
C -0.4472 2.7346 -0.9696
Cl -0.8394 2.3022 0.6877
C -0.8905 3.9566 -1.4827
H 0.3201 3.6396 -4.6436
H 0.7293 -1.5131 -1.5698
H -0.0310 -0.5961 -2.8929
H -2.3228 0.3720 -2.5951
H -4.4985 0.1878 -1.4419
H -4.6767 -1.0562 0.6951
H -2.6675 -2.1238 1.6804
H -0.4884 -1.9581 0.5395
H 1.2093 0.8507 2.2453
H 0.9132 -0.7224 4.0977
H 1.8248 -5.3761 4.7485
H 2.6100 -3.8728 1.6743
H 2.8910 -2.2903 -0.1728
H -1.4519 4.6344 -0.8504
*
