! B3LYP 6-31G* SP

* xyz 0 1
C -5.2367 -0.8606 -0.9057
C -4.7663 -0.4378 0.4878
C -3.3066 -0.1206 0.6812
C -2.8197 1.1614 0.3871
C -1.4556 1.4422 0.5074
C -0.5593 0.4427 0.9121
C 0.9156 0.7321 0.9770
N 1.4772 0.8138 -0.3744
C 1.6307 2.0875 -1.0093
N 0.8137 2.4183 -2.0455
C 0.9005 3.6153 -2.6806
C 1.8641 4.5561 -2.2884
C 1.9368 5.9091 -2.9488
F 3.2376 6.3804 -2.9485
F 1.5034 5.8382 -4.2617
F 1.1348 6.7963 -2.2557
C 2.7055 4.2401 -1.2114
C 2.6021 3.0016 -0.5737
Cl 3.7192 2.6065 0.7234
S 1.6010 -0.6204 -1.3464
O 0.2370 -1.0001 -1.8514
O 2.4993 -0.3624 -2.5236
C 2.2982 -1.9262 -0.3942
C 1.5614 -3.0846 -0.1140
C 2.1260 -4.1093 0.6516
C 3.4392 -3.9920 1.1421
C 4.0385 -5.0815 1.9433
O 5.2379 -5.0069 2.3270
O 3.2838 -6.2018 2.2798
C 4.1722 -2.8263 0.8561
C 3.6028 -1.8006 0.0968
C -1.0465 -0.8421 1.2030
C -2.4093 -1.1237 1.0793
C -5.4789 -1.0838 1.6700
C -5.7487 0.3740 1.3226
H -5.0497 -0.0353 -1.6243
H -4.6670 -1.7556 -1.2321
H -6.3209 -1.1037 -0.9213
H -3.4960 1.9389 0.0512
H -1.0960 2.4359 0.2728
H 1.0714 1.6872 1.5233
H 1.4496 -0.0526 1.5546
H 0.2127 3.8319 -3.4875
H 3.4438 4.9531 -0.8686
H 0.5488 -3.1964 -0.4818
H 1.5348 -4.9945 0.8551
H 3.6842 -6.9527 2.8281
H 5.1837 -2.7051 1.2205
H 4.1786 -0.9073 -0.1091
H -0.3707 -1.6279 1.5137
H -2.7645 -2.1251 1.2845
H -6.3259 -1.7594 1.4245
H -4.8832 -1.2044 2.6004
H -5.2975 1.0920 2.0413
H -6.7471 0.5463 0.8655
*
