! B3LYP 6-31G* SP

* xyz 0 1
O 1.3348 0.9266 2.5502
S 1.2065 -0.1936 1.5567
O 1.0534 -1.4817 2.3170
C 2.6436 -0.2896 0.5473
C 3.4357 0.8442 0.3331
C 4.5537 0.7749 -0.5037
C 4.8928 -0.4322 -1.1435
C 6.0707 -0.5259 -2.0391
N 6.4329 -1.6421 -2.7011
N 7.5220 -1.3068 -3.3777
N 7.8240 -0.0389 -3.1462
N 6.9332 0.4695 -2.3144
C 4.0875 -1.5647 -0.9263
C 2.9717 -1.4924 -0.0886
N -0.1798 0.0666 0.5436
C -0.3295 1.3245 -0.1922
C -0.7790 2.4221 0.7325
C 0.1086 3.4393 1.1161
C -0.3039 4.4362 2.0048
C -1.6024 4.4324 2.5283
O -1.9555 5.4467 3.4337
C -3.2156 5.5618 4.0901
F -4.2236 5.7402 3.1587
F -3.1843 6.6588 4.9298
F -3.4649 4.4298 4.8453
C -2.4965 3.4185 2.1334
C -2.0865 2.4244 1.2394
C -1.2184 -0.9218 0.5076
N -1.9594 -1.0958 1.6287
C -2.9713 -1.9831 1.7025
C -3.3247 -2.7384 0.5870
C -4.4104 -3.6241 0.6869
C -4.8202 -4.3629 -0.4162
C -4.1658 -4.2078 -1.6310
C -3.0811 -3.3339 -1.7479
C -2.5973 -2.5958 -0.6336
C -1.4572 -1.7053 -0.6579
C -0.3874 -1.5511 -1.7648
C -0.8455 -1.3852 -3.1990
C -0.1073 -2.6589 -2.7629
H 3.1852 1.7849 0.8069
H 5.1403 1.6707 -0.6484
H 6.9391 1.4521 -1.9661
H 4.3164 -2.5075 -1.4074
H 2.3564 -2.3720 0.0540
H -1.0770 1.2099 -1.0082
H 0.6351 1.5841 -0.6796
H 1.1226 3.4569 0.7361
H 0.3929 5.2128 2.2961
H -3.5073 3.3809 2.5185
H -2.7853 1.6477 0.9532
H -3.5186 -2.0754 2.6329
H -4.9489 -3.7387 1.6206
H -5.6602 -5.0414 -0.3343
H -4.5074 -4.7619 -2.4968
H -2.6891 -3.2534 -2.7389
H 0.5358 -0.9803 -1.5387
H -0.2197 -0.6671 -3.7703
H -1.9419 -1.3879 -3.3333
H -0.6322 -3.6044 -2.5515
H 0.9600 -2.6943 -3.0715
*
