! B3LYP 6-31G* SP

* xyz 0 1
C -4.9305 2.4647 0.5422
N -4.6323 1.0720 0.1688
C -3.7871 0.3193 0.9527
O -3.2410 0.8042 1.9809
C -3.5563 -0.9987 0.5905
C -2.8021 -2.0333 1.1048
C -1.8949 -2.0161 2.2952
C -0.5555 -1.4637 1.9121
O 0.2105 -2.1583 1.1904
N -0.1607 -0.1537 2.3494
C 1.0333 0.5059 1.9101
N 1.9007 -0.0120 1.0143
C 2.9422 0.8305 0.7664
C 4.0031 0.4785 -0.2078
C 3.6821 -0.3436 -1.2988
C 4.6587 -0.7066 -2.2241
C 5.9697 -0.2506 -2.0831
F 6.8972 -0.6583 -2.9862
C 6.3183 0.5956 -1.0104
C 7.7502 1.0514 -0.8195
F 8.4180 1.1317 -2.0288
F 7.7933 2.3055 -0.2357
F 8.4081 0.1514 -0.0021
C 5.3332 0.9247 -0.0528
F 5.6858 1.6228 1.0578
C 2.8877 2.0409 1.4637
S 1.5034 2.0341 2.4199
O -2.9844 -3.0819 0.3223
N -3.8050 -2.8157 -0.6606
C -4.1597 -1.5265 -0.5003
N -5.0055 -0.8055 -1.2848
C -5.6829 -1.4268 -2.4305
C -5.2630 0.5004 -0.9250
O -6.0886 1.1796 -1.5988
H -5.8237 2.4900 1.2013
H -5.1221 3.0878 -0.3574
H -4.0740 2.9343 1.0714
H -1.7672 -3.0532 2.6720
H -2.3516 -1.4194 3.1125
H -0.7774 0.3587 3.0185
H 2.6708 -0.7062 -1.4377
H 4.3981 -1.3515 -3.0537
H 3.5830 2.8649 1.3831
H -5.1115 -2.2989 -2.8140
H -5.7747 -0.7043 -3.2695
H -6.6957 -1.7641 -2.1253
*
