! B3LYP 6-31G* SP

* xyz 0 1
C 5.5947 1.2428 -0.2511
C 5.3229 -0.0313 0.5779
C 6.0570 -1.2061 -0.1118
C 5.9287 0.1351 1.9890
C 3.8005 -0.2539 0.6930
C 2.9960 0.7308 1.3093
C 1.6142 0.5656 1.4267
C 0.9939 -0.5892 0.9355
C -0.5010 -0.7383 1.0128
N -1.1309 -0.1053 -0.1473
C -1.1631 1.3202 -0.2668
N -0.3059 1.9357 -1.1246
C -0.2807 3.2858 -1.2744
C -1.1471 4.0970 -0.5246
C -1.1643 5.5920 -0.7141
F -2.0922 5.9178 -1.6852
F -1.5056 6.2257 0.4681
F 0.0807 6.0516 -1.1078
C -2.0661 3.4766 0.3356
C -2.0744 2.0867 0.4756
Cl -3.2529 1.3338 1.5421
S -1.8142 -1.0780 -1.4107
O -2.0773 -0.2324 -2.6256
O -0.8485 -2.1641 -1.7939
C -3.3269 -1.7762 -0.8467
C -4.5058 -1.0221 -0.8928
C -5.7077 -1.5642 -0.4285
C -5.7456 -2.8710 0.0910
C -7.0159 -3.4532 0.5767
O -8.0726 -2.7669 0.5816
O -7.0556 -4.7669 1.0331
C -4.5560 -3.6192 0.1417
C -3.3548 -3.0733 -0.3200
C 1.7725 -1.5709 0.3116
C 3.1558 -1.4115 0.1946
H 6.6868 1.4022 -0.3817
H 5.1841 2.1473 0.2437
H 5.1310 1.1547 -1.2576
H 5.6903 -1.3473 -1.1517
H 7.1495 -1.0091 -0.1684
H 5.9176 -2.1498 0.4588
H 5.7107 -0.7613 2.6107
H 7.0321 0.2614 1.9313
H 5.5196 1.0278 2.5084
H 3.4327 1.6397 1.7001
H 1.0252 1.3452 1.8949
H -0.7719 -1.8159 1.0550
H -0.8838 -0.2814 1.9502
H 0.4152 3.7222 -1.9796
H -2.7800 4.0702 0.8931
H -4.4938 -0.0120 -1.2834
H -6.6063 -0.9606 -0.4773
H -7.9213 -5.1791 1.3601
H -4.5510 -4.6256 0.5415
H -2.4476 -3.6622 -0.2629
H 1.3086 -2.4648 -0.0868
H 3.7008 -2.2048 -0.2939
*
