! B3LYP 6-31G* SP

* xyz 0 1
C 0.1018 3.6127 1.1898
C 1.4679 2.9905 1.3614
C 1.6527 1.5896 1.2267
N 0.5792 0.7089 0.8421
C 0.1850 0.7243 -0.5763
C -1.2150 0.2098 -0.8273
C -2.3074 0.6195 -0.0269
C -3.6083 0.1865 -0.3168
C -3.8187 -0.6260 -1.4364
C -2.7671 -1.0087 -2.2333
C -1.4590 -0.6083 -1.9501
C -3.2006 -1.8627 -3.3633
C -4.7382 -1.7984 -3.3037
C -5.1178 -1.1899 -1.9211
C -6.1857 -0.0895 -2.0707
C -5.6061 -2.2896 -0.9588
S 0.4152 -0.7581 1.7743
O 0.6437 -0.4431 3.2274
O -0.9662 -1.3353 1.6425
C 1.5917 -1.9519 1.2338
C 2.7543 -2.1912 1.9780
C 3.6815 -3.1457 1.5486
C 3.4616 -3.8699 0.3629
C 4.4316 -4.8910 -0.0890
O 5.4705 -5.1268 0.5845
O 4.1987 -5.6114 -1.2590
C 2.2973 -3.6168 -0.3843
C 1.3686 -2.6667 0.0510
N 2.8837 1.0503 1.4412
C 3.9679 1.7944 1.7642
C 3.8575 3.1811 1.8739
C 4.9863 3.9578 2.1780
C 4.8750 5.3448 2.2845
C 3.6429 5.9660 2.0783
C 2.5118 5.2053 1.7687
C 2.5968 3.7975 1.6676
H -0.1293 4.2646 2.0580
H -0.7005 2.8579 1.1571
H 0.0719 4.2073 0.2522
H 0.9250 0.1252 -1.1495
H 0.2345 1.7597 -0.9746
H -2.1572 1.2439 0.8388
H -4.4339 0.4857 0.3153
H -0.6502 -0.9170 -2.6009
H -2.8439 -2.9055 -3.2055
H -2.8185 -1.4653 -4.3294
H -5.1806 -2.8083 -3.4590
H -5.0939 -1.1495 -4.1354
H -6.4832 0.3064 -1.0753
H -7.0893 -0.5020 -2.5695
H -5.7972 0.7539 -2.6843
H -5.7735 -1.8750 0.0599
H -6.5631 -2.7241 -1.3234
H -4.8552 -3.1066 -0.8853
H 2.9465 -1.6375 2.8899
H 4.5699 -3.3162 2.1457
H 4.8446 -6.3293 -1.5632
H 2.1025 -4.1498 -1.3054
H 0.4741 -2.4888 -0.5332
H 4.9197 1.3005 1.9101
H 5.9545 3.4920 2.3250
H 5.7465 5.9420 2.5168
H 3.5644 7.0430 2.1541
H 1.5822 5.7344 1.6076
*
