! B3LYP 6-31G* SP

* xyz 0 1
N 0.4068 -3.2173 1.5520
C 0.0444 -1.8384 1.5301
O -0.3912 -1.3012 2.5818
C 0.1582 -1.0549 0.2434
C -0.8908 -1.4902 -0.7634
C -0.5288 -1.6905 -2.1082
C -1.4905 -2.0593 -3.0543
C -2.8231 -2.2288 -2.6704
C -3.1991 -2.0208 -1.3414
C -2.2407 -1.6518 -0.3910
N 0.1257 0.4113 0.4644
C -1.1085 1.0822 0.7800
O -1.4640 1.1731 1.9848
C -1.9427 1.7000 -0.2817
C -1.5299 1.6846 -1.6278
C -2.3304 2.2561 -2.6220
C -3.5393 2.8645 -2.2807
C -3.9641 2.8859 -0.9517
C -3.1745 2.3048 0.0428
C 1.3685 1.2041 0.5376
C 2.2147 1.0940 -0.7545
C 3.5101 0.3400 -0.3935
C 3.4480 0.2039 1.0796
C 4.4279 -0.3498 1.9088
C 4.1983 -0.3886 3.2914
C 3.0021 0.1259 3.8232
F 2.7860 0.0905 5.1593
C 2.0301 0.6741 2.9729
C 2.2728 0.6903 1.5972
H 0.3431 -3.7659 2.4380
H 0.7360 -3.6932 0.6835
H 1.1532 -1.3313 -0.1659
H 0.4986 -1.5592 -2.4268
H -1.2023 -2.2142 -4.0862
H -3.5658 -2.5168 -3.4045
H -4.2352 -2.1419 -1.0474
H -2.5540 -1.4858 0.6321
H -0.5925 1.2326 -1.9193
H -2.0039 2.2389 -3.6538
H -4.1438 3.3221 -3.0477
H -4.9036 3.3574 -0.6901
H -3.5270 2.3333 1.0663
H 1.1417 2.2751 0.7415
H 2.4706 2.1133 -1.1170
H 1.6739 0.5710 -1.5699
H 3.5266 -0.6655 -0.8650
H 4.4082 0.9200 -0.6946
H 5.3482 -0.7402 1.4940
H 4.9457 -0.8133 3.9493
H 1.1059 1.0698 3.3748
*
