! B3LYP 6-31G* SP

* xyz 0 1
C 7.7555 -0.8173 0.6674
O 6.5326 -0.9298 1.3855
C 5.2859 -0.6996 0.7966
C 4.1288 -0.8283 1.5665
C 2.8829 -0.5997 0.9802
C 2.7937 -0.2475 -0.3777
C 1.4837 0.0114 -1.0242
O 1.4457 0.6659 -2.1025
N 0.2617 -0.4858 -0.4475
C -1.0529 -0.1752 -1.0319
C -2.2465 -0.8554 -0.3579
C -2.1877 -1.4968 0.8991
C -3.3222 -2.1043 1.4454
C -4.5378 -2.1119 0.7451
C -5.7712 -2.7240 1.3602
F -6.4245 -1.7687 2.1160
F -6.6297 -3.1866 0.3778
F -5.4329 -3.7903 2.1755
C -4.6093 -1.4604 -0.4948
C -3.4773 -0.8524 -1.0422
C -1.2890 1.3239 -1.1976
N -1.7755 1.7117 -2.4121
C -2.0365 3.0026 -2.7311
C -1.7984 4.0057 -1.8033
C -1.3052 3.6674 -0.5472
C -1.0651 2.3227 -0.1968
C -0.4833 2.0468 1.1777
F -0.9849 0.8860 1.7154
F -0.7934 3.0663 2.0623
F 0.8919 1.9578 1.0897
C 3.9863 -0.1200 -1.1106
N 5.1869 -0.3493 -0.5155
H 8.6005 -1.0471 1.3482
H 7.8759 0.2170 0.2810
H 7.7681 -1.5380 -0.1776
H 4.1951 -1.0976 2.6129
H 1.9981 -0.6783 1.5979
H 0.3618 -1.3350 0.1470
H -1.0221 -0.6093 -2.0577
H -1.2841 -1.5276 1.4874
H -3.2483 -2.5674 2.4215
H -5.5421 -1.4204 -1.0432
H -3.5637 -0.3732 -2.0095
H -2.4205 3.2481 -3.7122
H -1.9888 5.0407 -2.0566
H -1.1079 4.4702 0.1519
H 3.9653 0.1530 -2.1577
*
