! B3LYP 6-31G* SP

* xyz 0 1
C -0.2398 2.3788 2.1357
C -0.1730 2.1550 0.6412
C -0.4114 0.8729 0.0907
N -0.7338 -0.2502 0.9276
C 0.1846 -1.3928 1.0637
C 0.1959 -2.2721 -0.2100
C 1.5733 -2.0936 -0.8776
C 2.3554 -1.3206 0.1155
C 3.7021 -0.9647 0.0208
C 4.2906 -0.2182 1.0562
O 5.6465 0.1261 0.9350
C 6.3907 0.8842 1.8863
F 5.8330 2.1416 2.0352
F 7.6884 1.0228 1.4324
F 6.4128 0.2301 3.1052
C 3.5038 0.1552 2.1744
C 2.1527 -0.2137 2.2452
C 1.5974 -0.9457 1.1947
S -2.3800 -0.4417 1.4447
O -2.4075 -0.9371 2.8638
O -3.0962 0.8794 1.3924
C -3.1877 -1.5815 0.3766
C -3.5856 -1.1725 -0.9013
C -4.1895 -2.0803 -1.7754
C -4.4008 -3.4143 -1.3828
C -5.0395 -4.3799 -2.3038
O -5.3763 -4.0266 -3.4663
O -5.2779 -5.6889 -1.8941
C -3.9908 -3.8202 -0.1006
C -3.3849 -2.9104 0.7709
N -0.3320 0.6838 -1.2526
C -0.0310 1.6841 -2.1141
C 0.2136 2.9727 -1.6343
C 0.5256 4.0115 -2.5248
C 0.7723 5.2976 -2.0435
C 0.7119 5.5557 -0.6744
C 0.4012 4.5309 0.2236
C 0.1458 3.2211 -0.2404
H 0.7415 2.7461 2.5028
H -1.0275 3.1266 2.3666
H -0.4791 1.4579 2.7026
H -0.0899 -2.0045 1.9510
H 0.0603 -3.3379 0.0775
H -0.6192 -2.0035 -0.9153
H 1.4828 -1.5125 -1.8206
H 2.0534 -3.0762 -1.0759
H 4.2859 -1.2611 -0.8417
H 3.9229 0.7278 2.9895
H 1.5515 0.0693 3.0991
H -3.4195 -0.1525 -1.2242
H -4.4880 -1.7383 -2.7584
H -5.7154 -6.3577 -2.5166
H -4.1323 -4.8421 0.2284
H -3.0629 -3.2466 1.7481
H 0.0156 1.4690 -3.1744
H 0.5785 3.8286 -3.5917
H 1.0122 6.0961 -2.7338
H 0.9049 6.5552 -0.3059
H 0.3644 4.7779 1.2756
*
