! B3LYP 6-31G* SP

* xyz 0 1
C 6.9266 -2.8643 -0.9849
O 6.6113 -2.0428 0.1177
C 5.2504 -1.6559 0.0736
C 5.1199 -0.2592 -0.5453
C 3.6685 0.2204 -0.5652
O 3.1902 0.3843 0.7682
C 1.8953 0.8080 1.1012
C 1.5588 0.9083 2.4555
C 0.2804 1.3176 2.8398
C -0.6747 1.6341 1.8722
C -0.3558 1.5503 0.5056
C -1.3952 1.8686 -0.5442
N -1.9512 3.2119 -0.3061
C -3.3092 3.4292 0.1158
S -3.8252 4.9378 0.4841
N -4.2141 2.3235 0.1885
C -3.7311 1.0340 -0.1805
C -2.4692 0.8097 -0.5377
C -2.3291 -0.6154 -0.8469
O -1.2792 -1.2058 -1.2139
C -3.6376 -1.2169 -0.6409
C -4.0693 -2.5338 -0.7866
C -5.4174 -2.8199 -0.5075
C -6.2951 -1.7948 -0.0926
C -5.8335 -0.4736 0.0474
C -4.4929 -0.2140 -0.2356
C 0.9311 1.1304 0.1257
H 6.3947 -3.8388 -0.9152
H 8.0159 -3.0734 -0.9708
H 6.6919 -2.3626 -1.9497
H 4.8790 -1.6188 1.1198
H 4.5963 -2.3829 -0.4660
H 5.7375 0.4625 0.0326
H 5.5008 -0.2804 -1.5887
H 3.6223 1.1957 -1.0965
H 3.0376 -0.5171 -1.1081
H 2.2917 0.6631 3.2138
H 0.0283 1.3863 3.8901
H -1.6644 1.9409 2.1871
H -0.9333 1.8672 -1.5554
H -1.3106 4.0330 -0.3958
H -5.2077 2.4575 0.4809
H -3.3888 -3.3130 -1.1044
H -5.7842 -3.8327 -0.6110
H -7.3305 -2.0271 0.1198
H -6.5017 0.3154 0.3659
H 1.1727 1.0535 -0.9257
*
