! B3LYP 6-31G* SP

* xyz 0 1
C -5.6969 -0.8074 -0.3930
N -4.3965 -1.0941 0.2384
C -4.1497 -2.5450 0.2081
C -3.3016 -0.3741 -0.4483
C -3.1870 1.0617 0.0769
C -2.0007 1.7521 -0.5277
C -1.9946 2.5363 -1.6771
N -0.7349 2.9317 -1.9708
C 0.0539 2.3922 -1.0250
C 1.4377 2.5005 -0.9177
C 2.0718 1.8306 0.1441
C 1.3152 1.0612 1.0721
O 1.9091 0.3688 2.1394
C 3.3142 0.2452 2.3619
C 3.9461 -0.6373 1.3180
C 5.0873 -0.2113 0.6177
C 5.6739 -1.0406 -0.3435
C 5.1323 -2.3020 -0.6053
C 4.0051 -2.7380 0.0963
C 3.4154 -1.9119 1.0581
C -0.0838 0.9803 0.9296
C -0.6811 1.6610 -0.1302
H -5.7118 -1.1320 -1.4576
H -6.5107 -1.3319 0.1528
H -5.9267 0.2765 -0.3420
H -4.9770 -3.0892 0.7132
H -4.0548 -2.9154 -0.8375
H -3.2186 -2.7854 0.7650
H -2.3261 -0.8767 -0.2530
H -3.4501 -0.3675 -1.5528
H -4.1012 1.6397 -0.1716
H -3.0819 1.0482 1.1830
H -2.8622 2.7920 -2.2715
H -0.4376 3.5223 -2.7791
H 2.0097 3.0804 -1.6305
H 3.1445 1.9174 0.2348
H 3.4726 -0.2226 3.3561
H 3.7828 1.2525 2.3968
H 5.5205 0.7621 0.8114
H 6.5495 -0.7057 -0.8844
H 5.5878 -2.9427 -1.3493
H 3.5890 -3.7169 -0.1039
H 2.5444 -2.2630 1.5976
H -0.6774 0.3980 1.6229
*
