! B3LYP 6-31G* SP

* xyz 0 1
O 7.6270 -1.9775 1.0638
C 6.5251 -1.9167 1.6738
O 6.4466 -2.3762 2.9861
C 5.3272 -1.3636 1.0043
C 5.3961 -0.8969 -0.3194
C 4.2618 -0.3749 -0.9476
C 3.0323 -0.3161 -0.2698
C 1.8386 0.2468 -0.9446
O 1.9922 1.0513 -1.9044
N 0.5111 -0.1173 -0.5293
C -0.6764 0.5965 -1.0171
C -1.9448 -0.1264 -0.6091
C -2.2402 -0.3499 0.7456
C -3.4157 -1.0068 1.1142
C -4.3240 -1.4533 0.1469
O -5.4821 -2.1056 0.6078
C -6.5353 -2.6411 -0.1896
F -7.4837 -3.1998 0.6450
F -7.1356 -1.6374 -0.9283
F -6.0486 -3.6291 -1.0265
C -4.0322 -1.2271 -1.2185
F -4.8659 -1.6291 -2.2076
C -2.8528 -0.5686 -1.5839
C -0.7030 2.0143 -0.4942
N -0.1360 2.3039 0.7118
C -0.1629 3.5562 1.2398
C -0.7942 4.5920 0.5496
C -1.3977 4.3244 -0.6798
C -1.3608 3.0318 -1.2075
F -1.9641 2.7741 -2.3955
C 2.9671 -0.7717 1.0585
C 4.1019 -1.2928 1.6871
H 7.2607 -2.7568 3.4536
H 6.3270 -0.9347 -0.8714
H 4.3446 -0.0268 -1.9699
H 0.3900 -0.9493 0.0910
H -0.6145 0.6281 -2.1281
H -1.5587 -0.0161 1.5181
H -3.6242 -1.1708 2.1640
H -2.6497 -0.4022 -2.6347
H 0.3033 3.7464 2.1971
H -0.8198 5.5908 0.9658
H -1.8973 5.1178 -1.2207
H 2.0482 -0.7058 1.6257
H 4.0193 -1.6340 2.7113
*
