! B3LYP 6-31G* SP

* xyz 0 1
O -2.7034 -1.7151 1.6454
C -2.1704 -0.8681 0.8793
C -0.7265 -0.9660 0.5793
S 0.2757 0.3423 0.2318
C 1.6768 -0.5878 0.1315
C 3.0362 -0.0792 -0.1634
C 4.1268 -0.9671 -0.2150
C 5.4130 -0.4943 -0.4931
C 5.6253 0.8666 -0.7223
C 4.5513 1.7585 -0.6741
F 4.7588 3.0798 -0.8971
C 3.2626 1.2908 -0.3964
N 1.4010 -1.8917 0.3621
C 0.0813 -2.1108 0.6084
O -0.3889 -3.4019 0.8418
N -2.9659 0.2043 0.3459
C -4.3846 0.3229 0.6195
C -4.8813 1.1585 -0.5288
C -3.6868 1.1643 -1.4749
O -2.5316 0.9527 -0.7018
H 3.9871 -2.0266 -0.0407
H 6.2459 -1.1845 -0.5307
H 6.6223 1.2291 -0.9373
H 2.4478 2.0022 -0.3649
H -1.3716 -3.6160 0.9433
H -4.8712 -0.6772 0.5996
H -4.5518 0.8207 1.5988
H -5.7809 0.7160 -1.0095
H -5.1006 2.1929 -0.1841
H -3.6134 2.1369 -2.0059
H -3.7826 0.3477 -2.2242
*
