! B3LYP 6-31G* SP

* xyz 0 1
C -4.4696 0.9664 -0.8918
O -4.5859 -0.3524 -0.3696
C -3.4824 -1.1602 -0.0756
N -2.2394 -0.6573 -0.2787
C -1.1011 -1.3511 -0.0456
N 0.1587 -0.6781 -0.2153
C 0.8170 -0.1946 1.0091
C 2.2845 0.1140 0.8242
C 2.8115 1.3201 1.3158
C 4.1739 1.6051 1.1831
C 5.0361 0.6914 0.5663
O 6.3933 1.0347 0.4517
C 7.3831 0.2740 -0.2374
F 8.5920 0.9425 -0.1675
F 7.5279 -0.9699 0.3504
F 7.0290 0.1293 -1.5670
C 4.5151 -0.5295 0.0935
C 3.1555 -0.8206 0.2410
S 0.4479 0.1160 -1.7433
O 1.7064 -0.4262 -2.3632
O -0.6901 -0.1511 -2.6901
C 0.5808 1.8575 -1.5106
C 1.8223 2.5003 -1.6104
C 1.9234 3.8773 -1.3937
C 0.7800 4.6346 -1.0867
C 0.8884 6.0925 -0.8659
O -0.1365 6.7746 -0.6012
O 2.1252 6.7253 -0.9522
C -0.4646 3.9848 -0.9956
C -0.5608 2.6057 -1.2032
C -1.1759 -2.6806 0.4168
C 0.0895 -3.4914 0.5912
C -2.4536 -3.2266 0.7167
C -2.5740 -4.5088 1.2947
C -3.8200 -5.0530 1.5747
C -4.9761 -4.3433 1.2844
C -4.9140 -3.0591 0.7202
C -6.2271 -2.3733 0.4267
C -3.6373 -2.4720 0.4456
H -3.9168 1.6119 -0.1773
H -3.9387 0.9440 -1.8665
H -5.4837 1.3880 -1.0453
H 0.2749 0.7091 1.3587
H 0.7317 -0.9551 1.8141
H 2.1677 2.0452 1.7973
H 4.5626 2.5441 1.5597
H 5.1490 -1.2631 -0.3847
H 2.7845 -1.7685 -0.1202
H 2.7161 1.9347 -1.8386
H 2.8966 4.3465 -1.4664
H 2.2099 7.7243 -0.8155
H -1.3640 4.5406 -0.7627
H -1.5255 2.1207 -1.1225
H 0.3516 -3.5507 1.6684
H -0.0405 -4.5130 0.1762
H 0.9370 -3.0547 0.0314
H -1.7102 -5.1041 1.5523
H -3.8899 -6.0382 2.0180
H -5.9303 -4.8047 1.5083
H -7.1016 -3.0183 0.6714
H -6.3184 -1.4502 1.0394
H -6.2952 -2.1352 -0.6571
*
