! B3LYP 6-31G* SP

* xyz 0 1
C -5.1989 -1.6190 -0.8369
C -3.7098 -1.6029 -0.6939
N -2.9515 -2.7231 -0.6432
C -1.6807 -2.3012 -0.5253
C -0.5386 -3.0910 -0.4213
C 0.7017 -2.4418 -0.2917
C 0.7838 -1.0302 -0.2663
O 2.0496 -0.4427 -0.1291
C 2.2836 0.9618 -0.0803
C 3.7544 1.2105 0.0811
C 4.5822 1.3216 -1.0483
C 5.9587 1.5157 -0.8955
C 6.5187 1.5867 0.3832
C 5.7033 1.4604 1.5114
C 4.3262 1.2672 1.3629
C -0.3987 -0.2579 -0.3767
C -1.6136 -0.9318 -0.5057
C -2.9091 -0.4613 -0.6220
C -3.3645 0.9724 -0.6012
C -3.7165 1.4378 0.8153
N -2.5196 1.5293 1.6476
H -5.5818 -2.6594 -0.7783
H -5.6630 -1.0231 -0.0242
H -5.4829 -1.1862 -1.8185
H -3.2841 -3.7126 -0.6821
H -0.6024 -4.1714 -0.4359
H 1.6041 -3.0337 -0.2073
H 1.9190 1.4366 -1.0175
H 1.7284 1.4064 0.7747
H 4.1625 1.2580 -2.0447
H 6.5920 1.6072 -1.7686
H 7.5844 1.7352 0.4998
H 6.1389 1.5089 2.5010
H 3.7069 1.1619 2.2450
H -0.3759 0.8228 -0.3589
H -4.2618 1.0769 -1.2477
H -2.5772 1.6297 -1.0282
H -4.1856 2.4437 0.7448
H -4.4568 0.7488 1.2801
H -2.7821 2.0276 2.5285
H -2.2433 0.5620 1.9331
*
