! B3LYP 6-31G* SP

* xyz 0 1
C -4.6104 1.4863 0.0794
C -3.5915 0.3402 0.1393
C -4.2465 -0.9818 -0.2726
C -2.3948 0.6247 -0.7410
O -2.5737 1.1858 -1.8567
C -1.0170 0.2390 -0.3631
S 0.3633 0.8065 -1.1429
C 1.4316 -0.0685 -0.1770
C 2.9083 -0.0611 -0.2895
C 3.6870 -0.8450 0.5821
C 5.0816 -0.8431 0.4820
C 5.7139 -0.0609 -0.4866
C 4.9527 0.7218 -1.3578
F 5.5678 1.4810 -2.2978
C 3.5571 0.7236 -1.2620
N 0.7558 -0.8034 0.7353
C -0.5921 -0.6432 0.6366
O -1.4604 -1.3385 1.4708
H -5.0334 1.5909 -0.9430
H -4.1250 2.4433 0.3681
H -5.4434 1.2929 0.7887
H -3.2670 0.2666 1.1978
H -3.5128 -1.8132 -0.2116
H -5.0934 -1.2168 0.4068
H -4.6284 -0.9218 -1.3147
H 3.2195 -1.4596 1.3411
H 5.6726 -1.4492 1.1565
H 6.7937 -0.0619 -0.5612
H 2.9904 1.3387 -1.9487
H -1.1054 -1.9733 2.1755
*
