! B3LYP 6-31G* SP

* xyz 0 1
C -3.6662 2.4407 -2.2531
C -4.4481 1.5230 -1.3686
O -5.5675 1.8726 -0.7613
C -5.9659 0.8450 -0.0472
C -5.1086 -0.2033 -0.1772
C -4.1127 0.2070 -1.0483
C -2.8764 -0.5425 -1.4636
C -1.7547 -0.3387 -0.4852
O -2.0042 -0.2613 0.7497
N -0.3978 -0.3383 -0.9541
C 0.7306 0.0379 -0.1533
N 2.0004 -0.2501 -0.5089
C 2.9096 0.2454 0.3787
C 4.3651 0.0176 0.2031
C 5.3155 0.8521 0.8178
C 6.6854 0.6211 0.6509
F 7.5535 1.4665 1.2587
C 7.1313 -0.4643 -0.1367
O 8.4879 -0.7718 -0.3383
C 9.5945 -0.0423 0.1846
C 10.8945 -0.7090 -0.2476
F 10.9401 -2.0065 0.2319
F 10.9762 -0.7302 -1.6301
F 11.9687 0.0003 0.2585
C 6.1819 -1.2886 -0.7540
F 6.5886 -2.3370 -1.5123
C 4.8149 -1.0486 -0.5928
C 2.3509 0.9467 1.4523
S 0.6786 0.9359 1.2704
C -5.3423 -1.3836 0.5193
O -4.5511 -2.3600 0.4041
N -6.4545 -1.4606 1.3273
C -6.7528 -2.7151 2.0387
C -7.3326 -0.3922 1.4079
O -8.3872 -0.4955 2.0967
N -7.0727 0.7844 0.7405
C -7.9992 1.9215 0.8122
H -3.5620 1.9912 -3.2646
H -2.6595 2.6090 -1.8163
H -4.1883 3.4185 -2.3461
H -2.5605 -0.1899 -2.4676
H -3.0941 -1.6262 -1.5536
H -0.2108 -0.6616 -1.9305
H 5.0047 1.6986 1.4161
H 9.5745 0.9998 -0.2073
H 9.5492 -0.0274 1.2970
H 4.1080 -1.7111 -1.0775
H 2.8822 1.3982 2.2783
H -7.3500 -3.3833 1.3808
H -5.8177 -3.2366 2.3373
H -7.3186 -2.5249 2.9767
H -8.8492 1.7526 0.1170
H -7.4935 2.8736 0.5401
H -8.3884 2.0413 1.8465
*
