! B3LYP 6-31G* SP

* xyz 0 1
C 5.4998 0.3242 0.2512
C 4.8248 -0.1022 -1.0472
O 3.4638 -0.4588 -0.8129
C 2.4466 0.4755 -0.5945
O 2.6953 1.7097 -0.6716
C 1.0682 0.0385 -0.3052
S -0.2541 1.0809 -0.2793
C -1.3719 -0.1305 0.0656
C -2.8306 0.0583 0.2395
C -3.6558 -1.0444 0.5277
C -5.0334 -0.8744 0.6933
C -5.6030 0.3947 0.5736
C -4.7953 1.4988 0.2876
Cl -5.5124 3.0929 0.1374
C -3.4155 1.3335 0.1209
N -0.7567 -1.3303 0.1686
C 0.5871 -1.2508 -0.0290
O 1.3763 -2.3960 0.0663
H 5.0166 1.2370 0.6576
H 5.4267 -0.4914 1.0014
H 6.5715 0.5431 0.0604
H 4.8885 0.7117 -1.8018
H 5.3574 -0.9887 -1.4511
H -3.2376 -2.0384 0.6254
H -5.6603 -1.7286 0.9149
H -6.6706 0.5188 0.7031
H -2.8086 2.2019 -0.1001
H 2.3831 -2.3850 -0.0018
*
