! B3LYP 6-31G* SP

* xyz -1 1
C 0.5393 -3.4400 -0.0746
C -0.8891 -3.0057 0.1591
C -1.1932 -1.6635 0.5030
N -0.1811 -0.6408 0.5437
C 0.3172 -0.1423 -0.7476
C 1.7287 0.3880 -0.6721
C 2.7546 -0.1606 0.0983
C 3.8610 0.6151 -0.1613
C 5.1473 0.5474 0.3692
C 6.0888 1.4996 -0.0651
Cl 7.7231 1.4638 0.5708
C 5.7219 2.4859 -1.0079
C 4.4139 2.5292 -1.5243
C 3.4988 1.5685 -1.0787
N 2.2017 1.4210 -1.4244
C 1.4411 2.2495 -2.3614
S -0.2029 0.4431 1.9131
O -0.9584 -0.1878 3.0521
O 1.1964 0.7219 2.3887
C -0.9925 1.9522 1.4600
C -0.2372 3.0180 0.9500
C -0.8664 4.2042 0.5555
C -2.2629 4.3430 0.6734
C -2.9339 5.6003 0.2673
O -2.2661 6.5553 -0.2201
O -4.3097 5.7475 0.4229
C -3.0159 3.2678 1.1844
C -2.3843 2.0807 1.5720
N -2.4827 -1.3065 0.7525
C -3.5129 -2.1820 0.6857
C -3.2810 -3.5105 0.3247
C -4.3510 -4.4131 0.2277
C -4.1199 -5.7374 -0.1459
C -2.8247 -6.1689 -0.4271
C -1.7492 -5.2802 -0.3384
C -1.9571 -3.9361 0.0469
H 1.2682 -2.6676 0.2214
H 0.7712 -4.3345 0.5405
H 0.6877 -3.6719 -1.1499
H 0.3032 -0.9506 -1.5094
H -0.3715 0.6538 -1.0969
H 2.6963 -0.9879 0.7919
H 5.4105 -0.2116 1.0954
H 6.4485 3.2177 -1.3359
H 4.1376 3.2935 -2.2371
H 0.6955 1.6348 -2.9083
H 0.9216 3.0591 -1.8091
H 2.1108 2.6992 -3.1244
H 0.8379 2.9295 0.8486
H -0.2605 5.0119 0.1595
H -4.0936 3.3413 1.2823
H -2.9822 1.2615 1.9562
H -4.5166 -1.8273 0.8842
H -5.3639 -4.0914 0.4323
H -4.9473 -6.4304 -0.2202
H -2.6513 -7.1969 -0.7188
H -0.7641 -5.6587 -0.5744
*
