! B3LYP 6-31G* SP

* xyz 0 1
C 0.0147 2.8151 0.2061
C -1.2277 1.9881 0.3658
C -1.2883 0.5982 0.1637
N -0.1794 -0.2809 -0.1206
C -0.2171 -1.1841 -1.2825
C -1.4045 -2.1159 -1.2591
C -2.3517 -2.0805 -2.2988
C -3.4514 -2.9397 -2.2784
C -3.6283 -3.8352 -1.2197
F -4.6968 -4.6689 -1.2330
C -2.7030 -3.8710 -0.1572
C -2.8799 -4.8499 0.9848
F -2.4657 -6.1077 0.5788
F -2.1409 -4.4686 2.0913
F -4.2082 -4.9108 1.3641
C -1.5734 -3.0299 -0.2052
S 1.1241 -0.4248 1.0387
O 0.7874 0.4149 2.2430
O 1.2026 -1.8538 1.4938
N 2.7047 0.0223 0.4037
C 3.2784 1.1846 1.1073
C 4.7804 1.3145 0.7898
C 5.1461 0.8701 -0.6481
C 5.7221 -0.5253 -0.6836
O 6.6240 -0.8066 -1.5188
O 5.2375 -1.5172 0.1690
C 3.9307 0.9798 -1.5842
C 2.7232 0.1680 -1.0700
S -2.8671 0.0619 0.4677
C -3.4780 1.5705 0.8519
C -4.7846 1.8942 1.2118
C -5.0763 3.2304 1.5176
C -4.0626 4.2067 1.4651
C -2.7540 3.8584 1.0889
C -2.4691 2.5222 0.7696
H 0.5111 2.9338 1.1916
H -0.2284 3.8206 -0.2000
H 0.7064 2.3436 -0.5124
H 0.6954 -1.8154 -1.3091
H -0.2142 -0.5708 -2.2102
H -2.2438 -1.3827 -3.1237
H -4.1736 -2.9036 -3.0820
H -0.8350 -3.0696 0.5840
H 2.7497 2.1189 0.8064
H 3.1767 1.0661 2.2127
H 5.0690 2.3761 0.9232
H 5.3676 0.7375 1.5356
H 5.9308 1.5630 -1.0276
H 5.6223 -2.4587 0.1540
H 4.1991 0.6481 -2.6116
H 3.6388 2.0534 -1.6583
H 2.7828 -0.8486 -1.5147
H 1.8051 0.6560 -1.4463
H -5.5593 1.1348 1.2503
H -6.0840 3.5109 1.7978
H -4.2955 5.2351 1.7097
H -1.9888 4.6224 1.0567
*
