! B3LYP 6-31G* SP

* xyz 0 1
C 4.9582 -2.5855 1.9626
O 3.9880 -2.3327 0.9517
C 3.6123 -1.0531 0.5149
C 4.1830 0.1207 1.0403
C 3.7808 1.3714 0.5636
C 2.8166 1.4623 -0.4423
C 2.2311 0.3002 -0.9704
C 1.1597 0.4042 -2.0253
N -0.0661 0.9788 -1.4495
C -0.2176 2.4085 -1.4425
O -0.1176 3.0490 -2.5218
C -0.4918 3.1364 -0.1926
C -0.4637 2.6094 1.0941
C -0.7526 3.5554 2.0855
C -0.9989 4.8285 1.5883
S -0.8596 4.7747 -0.0871
C -1.2401 0.1431 -1.1362
C -0.8614 -1.0465 -0.2253
C -2.0817 -1.6924 0.3797
C -2.7246 -1.0939 1.4764
C -3.8704 -1.6766 2.0250
C -4.3846 -2.8574 1.4819
C -3.7535 -3.4559 0.3885
C -2.6082 -2.8757 -0.1645
C -1.9167 -0.2878 -2.4154
N -2.8857 0.5613 -3.0296
O -1.6018 -1.3739 -2.9749
C 2.6341 -0.9533 -0.4823
H 4.6343 -2.1318 2.9237
H 5.0606 -3.6823 2.1023
H 5.9446 -2.1745 1.6570
H 4.9374 0.0776 1.8140
H 4.2245 2.2722 0.9695
H 2.5305 2.4399 -0.8111
H 0.9501 -0.5942 -2.4648
H 1.5261 1.0340 -2.8645
H -0.2335 1.5780 1.3199
H -0.7775 3.3184 3.1410
H -1.2389 5.7023 2.1786
H -1.9743 0.7593 -0.5698
H -0.2699 -1.7997 -0.7863
H -0.2089 -0.6866 0.5975
H -2.3385 -0.1758 1.9026
H -4.3624 -1.2112 2.8685
H -5.2726 -3.3073 1.9064
H -4.1553 -4.3688 -0.0341
H -2.1333 -3.3492 -1.0153
H -3.3666 0.2618 -3.9068
H -3.1407 1.4792 -2.6005
H 2.1970 -1.8603 -0.8828
*
