! B3LYP 6-31G* SP

* xyz 0 1
C 0.3004 -1.9455 1.5904
C 0.7247 -1.8161 0.1433
C 1.0772 -0.5566 -0.3977
N 1.0578 0.6297 0.4064
C 0.0629 1.6716 0.1462
C -1.3229 1.1194 0.3378
C -1.8664 1.0135 1.6228
C -3.1096 0.4063 1.8166
C -3.8529 -0.0929 0.7236
C -5.1929 -0.8152 0.9577
O -5.7295 -0.4351 2.2070
C -4.9329 -2.3409 1.0210
F -6.1198 -3.0236 1.2247
F -4.0799 -2.6311 2.0726
F -4.3528 -2.7999 -0.1490
C -6.2539 -0.4756 -0.1384
F -7.5172 -0.8364 0.3007
F -6.2602 0.8871 -0.3917
F -6.0120 -1.1475 -1.3250
C -3.2761 -0.0089 -0.5612
C -2.0314 0.5953 -0.7512
S 2.3852 0.9566 1.4753
O 3.2759 -0.2505 1.5811
O 1.8545 1.2786 2.8445
C 3.3159 2.3062 0.8358
C 3.2555 3.5667 1.4429
C 3.9745 4.6395 0.9088
C 4.7648 4.4673 -0.2413
C 5.5260 5.6001 -0.8118
O 5.4954 6.7326 -0.2607
O 6.2824 5.4255 -1.9671
C 4.8189 3.1996 -0.8455
C 4.0954 2.1282 -0.3131
N 1.3995 -0.4444 -1.7132
C 1.4191 -1.5086 -2.5506
C 1.1028 -2.7835 -2.0740
C 1.1254 -3.8886 -2.9393
C 0.8106 -5.1610 -2.4604
C 0.4697 -5.3405 -1.1199
C 0.4438 -4.2489 -0.2470
C 0.7556 -2.9502 -0.7095
H 1.0428 -2.5630 2.1447
H 0.2174 -0.9668 2.1055
H -0.7037 -2.4248 1.6476
H 0.2156 2.5333 0.8320
H 0.1906 2.0557 -0.8891
H -1.3113 1.3733 2.4815
H -3.4776 0.3131 2.8296
H -5.9109 0.5424 2.1792
H -3.7694 -0.4251 -1.4261
H -1.6055 0.6276 -1.7463
H 2.6484 3.7227 2.3254
H 3.9080 5.6035 1.3939
H 6.8082 6.1938 -2.3666
H 5.4178 3.0331 -1.7309
H 4.1401 1.1599 -0.7990
H 1.6836 -1.3555 -3.5897
H 1.3865 -3.7684 -3.9845
H 0.8304 -6.0103 -3.1302
H 0.2246 -6.3305 -0.7538
H 0.1811 -4.4362 0.7852
*
