! B3LYP 6-31G* SP

* xyz 0 1
C -2.1747 -2.5307 -1.6371
C -3.0142 -1.4535 -1.0324
O -3.8609 -1.6642 -0.0422
C -4.4045 -0.5096 0.2639
C -3.9192 0.4854 -0.5268
C -3.0140 -0.1043 -1.3929
C -2.1416 0.5653 -2.4162
C -0.8891 1.0734 -1.7696
O -0.9038 2.1997 -1.2046
N 0.3022 0.2702 -1.7810
C 1.4789 0.5384 -1.0046
N 2.6076 -0.1909 -1.1284
C 3.5867 0.2147 -0.2708
C 4.9125 -0.4578 -0.2383
C 5.0783 -1.7024 -0.8721
C 6.3109 -2.3574 -0.8413
F 6.4487 -3.5668 -1.4387
C 7.3994 -1.7751 -0.1908
C 7.2718 -0.5165 0.4189
C 8.4355 0.0978 1.1570
F 9.6392 -0.3325 0.6254
F 8.3937 1.4785 1.0674
F 8.3748 -0.2694 2.4882
C 6.0201 0.1256 0.4096
C 3.2200 1.2796 0.5595
S 1.6361 1.7090 0.1937
C -4.3654 1.7902 -0.3546
O -3.9294 2.7162 -1.0918
N -5.2957 2.0418 0.6281
C -5.8177 3.4068 0.8090
C -5.7987 1.0040 1.3942
O -6.7012 1.2338 2.2486
N -5.3301 -0.2808 1.2331
C -5.8645 -1.3903 2.0322
H -2.2966 -2.5334 -2.7401
H -2.4870 -3.5197 -1.2414
H -1.1091 -2.3618 -1.3798
H -2.6880 1.4047 -2.8944
H -1.8885 -0.1505 -3.2261
H 0.3195 -0.5757 -2.3936
H 4.2490 -2.1798 -1.3790
H 8.3416 -2.3081 -0.1652
H 5.9231 1.0849 0.8978
H 3.8203 1.7440 1.3284
H -6.0919 3.5942 1.8691
H -5.0547 4.1698 0.5446
H -6.7135 3.5505 0.1690
H -5.9867 -1.0815 3.0924
H -6.8499 -1.7007 1.6254
H -5.1794 -2.2649 2.0220
*
