! B3LYP 6-31G* SP

* xyz 0 1
C -2.9482 -1.1423 -1.7642
C -2.0085 -1.5406 -0.8904
C -0.9859 -2.5532 -1.3367
C -1.9527 -0.9609 0.5190
C -3.2808 -1.2195 1.3034
C -3.9971 0.0674 1.7410
C -3.0158 1.0139 2.3907
C -3.3277 1.6789 3.7025
C -1.8353 1.2318 1.7880
C -1.5268 0.5407 0.4783
C -0.0580 0.6881 0.0891
C 0.9752 0.3192 0.9840
O 0.6699 -0.1572 2.2596
C 2.3164 0.4240 0.5936
C 2.6544 0.8887 -0.6827
C 4.0970 0.9579 -1.1080
C 4.5365 -0.3691 -1.7352
C 5.9973 -0.3156 -2.1722
C 1.6366 1.2249 -1.5828
C 0.2900 1.1265 -1.2090
O -0.7016 1.4574 -2.1333
H -3.6983 -0.4092 -1.4850
H -2.9787 -1.5477 -2.7712
H -0.4292 -2.1607 -2.2141
H -1.4934 -3.4994 -1.6201
H -0.2510 -2.7761 -0.5356
H -1.1683 -1.5100 1.0832
H -3.0481 -1.8067 2.2200
H -3.9907 -1.8409 0.7149
H -4.4402 0.5622 0.8499
H -4.8263 -0.1896 2.4344
H -4.3390 1.3997 4.0648
H -2.5818 1.3710 4.4655
H -3.2913 2.7821 3.5814
H -1.1122 1.9094 2.2357
H -2.1654 1.0615 -0.2668
H 1.3933 -0.4292 2.9148
H 3.0981 0.1349 1.2856
H 4.7380 1.1878 -0.2283
H 4.2339 1.7833 -1.8411
H 3.9035 -0.5923 -2.6219
H 4.4113 -1.1919 -0.9976
H 6.6544 -0.1187 -1.2984
H 6.1444 0.4835 -2.9298
H 6.2866 -1.2888 -2.6218
H 1.8902 1.5577 -2.5820
H -0.4748 1.7673 -3.0710
*
