! B3LYP 6-31G* SP

* xyz 0 1
C 0.8244 -1.9711 2.0956
C -0.4354 -1.4423 1.4435
C -0.3621 -0.4204 0.4718
N 0.8810 0.2082 0.1353
C 1.4336 0.0557 -1.2111
C 2.2630 -1.1965 -1.2828
C 1.6450 -2.4468 -1.4311
C 2.4129 -3.6148 -1.4453
C 3.8072 -3.5546 -1.3183
O 4.5295 -4.7593 -1.3564
C 5.9531 -4.8690 -1.3111
F 6.5224 -4.1593 -2.3563
F 6.3027 -6.1992 -1.4341
F 6.4306 -4.3935 -0.1025
C 4.4269 -2.2997 -1.1584
C 3.6579 -1.1325 -1.1340
S 1.5745 1.3660 1.2285
O 0.9490 1.2367 2.5887
O 3.0486 1.1002 1.3508
C 1.2871 2.9916 0.6204
C -0.0169 3.3942 0.3075
C -0.2608 4.6862 -0.1656
C 0.7983 5.5964 -0.3297
C 0.5454 6.9688 -0.8198
O -0.6200 7.3300 -1.1374
O 1.5942 7.8761 -0.9332
C 2.1055 5.1842 -0.0170
C 2.3475 3.8908 0.4550
N -1.4872 0.0035 -0.1541
C -2.7200 -0.4917 0.1140
C -3.8619 0.0966 -0.6152
C -4.8869 0.7655 0.0698
C -5.9396 1.3419 -0.6432
C -5.9522 1.2538 -2.0385
N -4.9388 0.6244 -2.6889
C -3.9007 0.0575 -2.0158
C -2.8649 -1.5115 1.0816
C -4.1179 -2.0963 1.3608
C -4.2361 -3.0877 2.3304
C -3.1144 -3.5189 3.0317
C -1.8616 -2.9763 2.7562
C -1.7092 -1.9786 1.7677
H 0.8772 -3.0728 1.9738
H 0.8231 -1.7129 3.1755
H 1.7504 -1.5611 1.6459
H 0.6151 0.0169 -1.9639
H 2.0570 0.9402 -1.4699
H 0.5687 -2.5177 -1.5287
H 1.9228 -4.5737 -1.5566
H 5.4989 -2.2120 -1.0479
H 4.1513 -0.1776 -1.0011
H -0.8466 2.7094 0.4327
H -1.2792 4.9728 -0.3976
H 1.4327 8.8169 -1.2697
H 2.9422 5.8596 -0.1363
H 3.3615 3.5956 0.6928
H -4.8676 0.8429 1.1510
H -6.7370 1.8548 -0.1205
H -6.7630 1.6959 -2.6026
H -3.1107 -0.4306 -2.5706
H -5.0112 -1.8032 0.8264
H -5.2023 -3.5246 2.5391
H -3.2154 -4.2829 3.7899
H -1.0213 -3.3446 3.3289
*
