! B3LYP 6-31G* SP

* xyz 0 1
C 4.6576 0.7145 -0.5006
C 4.1575 -0.6871 -0.1646
C 2.9011 -1.0056 -0.9251
O 3.0032 -1.6387 -2.0103
C 1.5568 -0.5794 -0.4748
S 0.1323 -0.9450 -1.2953
C -0.8639 -0.1428 -0.1982
C -2.3387 -0.0368 -0.2818
C -3.0535 0.6666 0.7056
C -4.4459 0.7710 0.6334
C -5.1397 0.1761 -0.4223
C -4.4423 -0.5249 -1.4089
F -5.1172 -1.1021 -2.4336
C -3.0492 -0.6324 -1.3415
N -0.1307 0.4088 0.7953
C 1.2021 0.1738 0.6501
O 2.1215 0.6646 1.5702
H 3.8923 1.4773 -0.2462
H 5.5794 0.9289 0.0800
H 4.8950 0.7870 -1.5836
H 4.9479 -1.4201 -0.4371
H 3.9933 -0.7899 0.9273
H -2.5376 1.1362 1.5337
H -4.9874 1.3139 1.3973
H -6.2177 0.2589 -0.4750
H -2.5327 -1.1808 -2.1183
H 1.8165 1.2078 2.3687
*
