! B3LYP 6-31G* SP

* xyz 0 1
C 6.5588 -0.1082 -0.7037
C 5.8760 -1.2703 0.0053
N 4.4441 -1.2513 -0.2642
N 3.8696 -1.8545 -1.2901
N 2.5741 -1.5869 -1.2700
C 2.3962 -0.7903 -0.1950
C 1.0878 -0.2423 0.2048
S -0.3420 -0.5481 -0.6286
C -1.2971 0.3796 0.4033
C -2.7588 0.5867 0.2814
C -3.4373 1.3883 1.2166
C -4.8140 1.5966 1.1044
C -5.5315 1.0049 0.0635
C -4.8769 0.1873 -0.8684
C -5.6404 -0.4170 -2.0098
C -3.4900 -0.0063 -0.7654
N -0.5447 0.9271 1.3847
C 0.7703 0.5925 1.2868
O 1.6868 1.0731 2.2208
N 3.5617 -0.5655 0.4411
H 6.4032 -0.1859 -1.8008
H 6.1429 0.8565 -0.3429
H 7.6488 -0.1304 -0.4932
H 6.3112 -2.2294 -0.3496
H 6.0512 -1.1919 1.1000
H -2.9038 1.8591 2.0327
H -5.3256 2.2218 1.8249
H -6.5969 1.1836 -0.0152
H -5.1928 -1.3887 -2.3088
H -6.6975 -0.6010 -1.7222
H -5.6166 0.2752 -2.8772
H -2.9887 -0.6197 -1.5035
H 2.6719 0.8552 2.1946
*
