! B3LYP 6-31G* SP

* xyz 0 1
C 4.6133 1.1353 0.5206
C 3.4993 1.3786 -0.5069
C 2.9815 0.0498 -1.0725
C 2.3609 2.2569 0.0611
C 1.6553 1.6418 1.2441
O 2.1536 1.7918 2.3922
C 0.4079 0.8630 1.0896
S -0.4616 0.6499 -0.3377
C -1.6521 -0.3055 0.3793
C -2.8194 -0.8992 -0.3121
C -3.7459 -1.6771 0.4070
C -4.8501 -2.2412 -0.2391
C -5.0422 -2.0364 -1.6069
C -4.1300 -1.2664 -2.3323
F -4.3176 -1.0683 -3.6604
C -3.0236 -0.6997 -1.6908
N -1.4036 -0.4687 1.6993
C -0.2710 0.1736 2.0944
O 0.1667 0.1321 3.4143
H 4.2556 0.4902 1.3510
H 4.9690 2.1009 0.9389
H 5.4752 0.6318 0.0328
H 3.9514 1.9418 -1.3535
H 3.8116 -0.5058 -1.5585
H 2.2001 0.2382 -1.8388
H 2.5563 -0.5863 -0.2675
H 1.6330 2.4845 -0.7463
H 2.7846 3.2369 0.3719
H -3.6181 -1.8501 1.4682
H -5.5576 -2.8381 0.3219
H -5.8980 -2.4748 -2.1039
H -2.3316 -0.1079 -2.2755
H -0.3531 -0.3809 4.1161
*
