! B3LYP 6-31G* SP

* xyz 0 1
O 3.7793 5.4776 -3.3976
C 3.4538 5.6162 -2.1878
O 4.1706 6.5010 -1.3872
C 2.3197 4.8511 -1.6241
C 2.0173 4.9354 -0.2545
C 0.9439 4.2166 0.2788
C 0.1572 3.4021 -0.5452
S -1.1856 2.4858 0.1382
O -1.8092 3.2703 1.2586
O -2.2359 2.2723 -0.9161
N -0.6228 0.9562 0.7539
C 0.2637 0.9752 1.9260
C 1.5182 0.1965 1.6518
C 1.5524 -1.1893 1.8701
C 2.6922 -1.9284 1.5411
C 3.8183 -1.2889 0.9873
O 4.9832 -1.9832 0.6237
C 5.1480 -3.3979 0.6814
F 4.1934 -4.0194 -0.1035
F 5.0449 -3.8380 1.9885
F 6.4016 -3.7229 0.2003
C 3.7822 0.0951 0.7809
C 2.6413 0.8343 1.1042
C -1.3956 -0.2297 0.4833
N -2.0563 -0.8126 1.5165
C -2.8840 -1.8764 1.3740
C -3.5200 -2.4602 2.6106
C -5.0028 -2.1521 2.7679
C -3.9885 -1.4491 3.6510
C -3.1032 -2.4158 0.0897
C -3.9702 -3.5099 -0.1121
C -4.2174 -3.9919 -1.3966
C -3.6133 -3.3906 -2.4969
C -2.7404 -2.3176 -2.3193
C -2.4417 -1.8319 -1.0256
C -1.5166 -0.7724 -0.8193
C -0.7089 -0.2009 -1.9705
C 0.8053 -0.1784 -1.7833
C 0.1830 -1.2037 -2.6995
C 0.4458 3.3270 -1.9133
C 1.5231 4.0377 -2.4486
H 4.9443 7.0361 -1.7633
H 2.6117 5.5536 0.4066
H 0.7315 4.2926 1.3380
H -0.2613 0.5521 2.8101
H 0.5292 2.0177 2.2027
H 0.6888 -1.6999 2.2783
H 2.6809 -2.9937 1.7174
H 4.6424 0.6003 0.3582
H 2.6298 1.8994 0.9137
H -3.1806 -3.4411 3.0054
H -5.4498 -1.5019 1.9848
H -5.5830 -2.9444 3.2865
H -3.9732 -1.8227 4.6960
H -3.8610 -0.3737 3.4037
H -4.4684 -3.9956 0.7162
H -4.8909 -4.8267 -1.5407
H -3.8250 -3.7550 -3.4939
H -2.3189 -1.8670 -3.2069
H -1.1539 0.5685 -2.6326
H 1.2200 -0.6589 -0.8782
H 1.3479 0.6169 -2.3345
H 0.3384 -0.9906 -3.7773
H 0.2122 -2.2360 -2.2863
H -0.1626 2.7219 -2.5707
H 1.7252 3.9586 -3.5099
*
