! B3LYP 6-31G* SP

* xyz 0 1
F 4.5253 -2.1071 -0.3198
C 5.2208 -2.0476 0.8747
F 4.3511 -2.2867 1.9218
F 6.1716 -3.0539 0.8558
C 5.8656 -0.6853 1.0521
C 7.1673 -0.6011 1.5866
C 7.7956 0.6352 1.7481
C 7.1348 1.8086 1.3909
C 5.8358 1.7525 0.8867
C 5.1821 0.5191 0.7300
C 3.7915 0.5297 0.2319
C 3.5228 0.9297 -1.1019
C 2.1977 0.9570 -1.5995
C 1.8821 1.3704 -3.0153
F 1.2472 0.3305 -3.6697
F 1.0481 2.4734 -2.9996
F 3.0294 1.6964 -3.7176
C 1.1813 0.5818 -0.7102
N -0.1417 0.5254 -0.9227
C -0.6487 0.1134 0.2655
C -2.0834 -0.0917 0.5061
N -2.5435 -0.4975 1.6362
O -3.9075 -0.6018 1.5671
C -4.4368 -0.2096 0.3058
C -5.2200 -1.3989 -0.3181
C -6.7002 -1.3684 0.0757
C -7.3934 -0.0888 -0.4366
C -6.4476 1.1269 -0.5284
C -5.3292 1.0476 0.5155
C -3.1549 0.1124 -0.5117
N 0.2967 -0.0923 1.2197
C 1.4386 0.2095 0.5765
C 2.7300 0.1743 1.0897
H 7.7075 -1.4928 1.8778
H 8.7991 0.6827 2.1511
H 7.6261 2.7650 1.5150
H 5.3297 2.6761 0.6317
H 4.3510 1.2086 -1.7415
H -0.6639 0.7483 -1.7991
H -5.1650 -1.3615 -1.4289
H -4.7687 -2.3631 0.0031
H -6.7812 -1.4192 1.1839
H -7.2156 -2.2612 -0.3399
H -7.8235 -0.2804 -1.4438
H -8.2393 0.1525 0.2434
H -7.0301 2.0620 -0.3812
H -5.9921 1.1705 -1.5423
H -5.8007 1.0039 1.5226
H -4.7277 1.9820 0.4947
H -2.9909 -0.5933 -1.3546
H -3.1292 1.1540 -0.8973
H 2.9064 -0.1080 2.1200
*
