! B3LYP 6-31G* SP

* xyz 0 1
C 1.4413 0.2355 2.1850
C 0.9488 1.4415 1.4177
C 0.0642 1.2354 0.3278
N -0.5065 -0.0537 0.0578
C -0.2347 -0.7185 -1.2178
C 1.1818 -1.2211 -1.2391
C 1.4868 -2.4914 -0.7284
C 2.8115 -2.9359 -0.6838
C 3.8548 -2.1067 -1.1404
O 5.2031 -2.4992 -1.1143
C 5.6882 -3.7459 -0.6200
F 5.1594 -4.7894 -1.3587
F 7.0646 -3.7691 -0.7379
F 5.3526 -3.8934 0.7142
C 3.5457 -0.8358 -1.6401
C 2.2213 -0.3915 -1.6853
S -1.7078 -0.7071 1.1297
O -1.9102 0.2092 2.3042
O -1.2390 -2.0453 1.6293
C -3.2326 -0.8666 0.2659
C -3.6999 0.1950 -0.5174
C -4.9015 0.0759 -1.2212
C -5.6541 -1.1106 -1.1507
C -6.9242 -1.2449 -1.8981
O -7.3596 -0.2877 -2.5941
O -7.6500 -2.4328 -1.8420
C -5.1809 -2.1711 -0.3583
C -3.9790 -2.0487 0.3453
N -0.2374 2.2578 -0.5099
C 0.2561 3.5034 -0.3402
C 1.0767 3.7942 0.7516
C 1.5618 5.1000 0.9093
C 2.3541 5.4272 2.0014
C 2.6439 4.4669 2.9632
C 2.1703 3.1542 2.8397
Cl 2.4833 2.1311 4.2427
C 1.4053 2.7723 1.6900
H 0.9084 0.1554 3.1541
H 2.5396 0.2932 2.3277
H 1.2811 -0.7115 1.6347
H -0.9334 -1.5702 -1.3680
H -0.4109 -0.0125 -2.0584
H 0.6989 -3.1349 -0.3563
H 3.0102 -3.9218 -0.2880
H 4.3384 -0.1854 -1.9886
H 2.0072 0.6025 -2.0590
H -3.1314 1.1140 -0.5863
H -5.2386 0.9104 -1.8227
H -8.5203 -2.5355 -2.3508
H -5.7376 -3.0969 -0.2825
H -3.6332 -2.8780 0.9482
H -0.0114 4.2735 -1.0535
H 1.3241 5.8715 0.1861
H 2.7243 6.4379 2.1174
H 3.2265 4.7553 3.8297
*
