! B3LYP 6-31G* SP

* xyz 0 1
O 0.9000 0.9338 0.8352
C 1.0167 -0.2861 0.5327
N 2.2286 -0.9829 0.8742
C 3.3012 -0.3361 1.6406
C 3.9962 0.7169 0.7996
C 4.3549 0.4561 -0.5370
C 5.0103 1.4304 -1.2957
C 5.3207 2.6686 -0.7285
C 4.9785 2.9342 0.5997
C 4.3228 1.9633 1.3628
C 4.3097 -1.3754 2.1595
F 5.2818 -0.7504 2.9211
F 4.9192 -2.0381 1.1081
F 3.6558 -2.3016 2.9525
N -0.0600 -0.9540 -0.1651
C -0.0878 -2.4287 -0.2092
C -1.4697 -2.9877 -0.5565
C -2.0349 -2.2955 -1.7564
C -2.8079 -3.0051 -2.6893
C -3.3559 -2.3473 -3.7927
C -3.1456 -0.9782 -3.9655
C -2.3916 -0.2623 -3.0322
C -1.8329 -0.9139 -1.9179
C -1.0528 -0.1239 -0.8871
C -2.0059 0.5717 0.0701
C -2.3926 -0.0155 1.2889
C -3.2948 0.6336 2.1361
C -3.8488 1.8723 1.7738
C -4.7864 2.5974 2.7061
F -4.0563 3.4504 3.5129
F -5.7099 3.3364 1.9867
F -5.4770 1.7021 3.5052
C -3.4459 2.4710 0.5694
C -2.5420 1.8234 -0.2767
H 2.3779 -1.9557 0.5253
H 2.8423 0.1429 2.5349
H 4.1259 -0.4991 -0.9922
H 5.2797 1.2241 -2.3235
H 5.8293 3.4211 -1.3173
H 5.2235 3.8924 1.0393
H 4.0699 2.1843 2.3924
H 0.6496 -2.7824 -0.9622
H 0.1969 -2.8400 0.7838
H -1.3720 -4.0794 -0.7444
H -2.1652 -2.8559 0.2976
H -2.9853 -4.0659 -2.5630
H -3.9466 -2.8988 -4.5127
H -3.5723 -0.4697 -4.8204
H -2.2448 0.8002 -3.1779
H -0.4827 0.6539 -1.4455
H -1.9838 -0.9646 1.6030
H -3.5563 0.1667 3.0773
H -3.8289 3.4424 0.2828
H -2.2547 2.3049 -1.2027
*
