! B3LYP 6-31G* SP

* xyz 0 1
C -0.4924 1.5765 1.7035
C -0.7289 1.1104 0.2432
C -1.5918 -0.1575 0.1319
C -2.2912 -0.7122 1.2255
C -3.0802 -1.8542 1.0630
C -3.2121 -2.4603 -0.1949
C -4.0311 -3.7181 -0.3410
F -3.2957 -4.7958 0.1163
F -5.1950 -3.6176 0.4017
F -4.3783 -3.9395 -1.6634
C -2.5108 -1.9222 -1.2846
C -1.7236 -0.7796 -1.1253
C -1.4874 2.2221 -0.5035
C -2.7599 2.6347 -0.0480
C -3.4775 3.6242 -0.7220
C -2.9532 4.2051 -1.8744
C -1.7132 3.7924 -2.3607
C -0.9726 2.8106 -1.6821
C 0.3151 2.3314 -2.2757
C 1.2620 1.8679 -1.1843
N 0.6172 0.8488 -0.3450
C 1.4435 -0.2264 0.1704
O 0.9100 -1.2943 0.5773
N 2.8676 -0.0628 0.2851
C 3.7937 -1.1582 0.3932
C 5.0049 -0.9716 1.0787
C 5.9314 -2.0145 1.1767
C 5.6624 -3.2490 0.5796
F 6.5628 -4.2586 0.6732
C 4.4693 -3.4391 -0.1228
C 3.5401 -2.3984 -0.2230
H -1.4304 1.8653 2.2195
H -0.0039 0.7761 2.2990
H 0.1774 2.4632 1.7115
H -2.2343 -0.2808 2.2136
H -3.5902 -2.2670 1.9247
H -2.5689 -2.3825 -2.2626
H -1.2072 -0.3808 -1.9885
H -3.2102 2.1785 0.8237
H -4.4483 3.9324 -0.3556
H -3.5157 4.9659 -2.4004
H -1.3326 4.2341 -3.2735
H 0.8074 3.1465 -2.8502
H 0.1052 1.4916 -2.9725
H 2.1677 1.4578 -1.6829
H 1.5681 2.7306 -0.5525
H 3.2404 0.9066 0.4012
H 5.2262 -0.0196 1.5445
H 6.8584 -1.8639 1.7147
H 4.2670 -4.3904 -0.5981
H 2.6389 -2.5573 -0.8000
*
