! B3LYP 6-31G* SP

* xyz 0 1
O 2.4577 -1.9295 -0.4798
C 1.9305 -0.7930 -0.3301
N 2.7538 0.3880 -0.3767
C 4.1916 0.3608 -0.3629
C 4.9000 -0.5738 0.4118
C 6.2979 -0.5632 0.4295
C 7.0137 0.3780 -0.3298
C 8.5198 0.4203 -0.2711
F 9.0367 -0.8480 -0.0703
F 9.0411 0.9175 -1.4531
F 8.9119 1.2370 0.7730
C 6.3025 1.3428 -1.0630
C 4.9048 1.3321 -1.0793
N 0.5041 -0.6950 -0.1356
C -0.2128 0.5529 -0.4412
C -1.7152 0.3005 -0.6251
C -2.3686 -0.4282 0.5887
C -2.8809 0.5835 1.6514
C -4.0773 1.4172 1.1628
C -5.1018 0.5816 0.4433
C -6.3973 1.0828 0.2413
C -7.3485 0.3197 -0.4423
C -7.0107 -0.9438 -0.9341
C -5.7190 -1.4442 -0.7490
C -4.7597 -0.6828 -0.0725
O -3.4724 -1.2015 0.1031
C -1.3706 -1.4105 1.2703
C -0.2525 -1.8660 0.3301
H 2.2988 1.3201 -0.4922
H 4.3762 -1.2921 1.0284
H 6.8195 -1.2846 1.0461
H 6.8271 2.1084 -1.6209
H 4.3751 2.0800 -1.6559
H -0.0489 1.2854 0.3781
H 0.1734 0.9848 -1.3901
H -2.2195 1.2599 -0.8558
H -1.8378 -0.3323 -1.5324
H -3.2058 0.0223 2.5562
H -2.0608 1.2678 1.9604
H -4.5490 1.9037 2.0445
H -3.7335 2.2296 0.4897
H -6.6699 2.0620 0.6153
H -8.3477 0.7081 -0.5912
H -7.7489 -1.5340 -1.4615
H -5.4607 -2.4219 -1.1356
H -1.9128 -2.3017 1.6561
H -0.8843 -0.9276 2.1479
H -0.6780 -2.4090 -0.5413
H 0.4088 -2.5640 0.8891
*
