! B3LYP 6-31G* SP

* xyz 0 1
C 2.3802 1.0374 2.2371
C 1.7963 -0.0622 1.3330
C 2.4244 -0.1073 -0.0528
C 2.7804 1.0675 -0.7447
C 3.2870 1.0001 -2.0460
F 3.6158 2.1386 -2.7036
C 3.4430 -0.2355 -2.6751
C 3.0818 -1.4061 -2.0109
F 3.2227 -2.6034 -2.6309
C 2.5690 -1.3466 -0.7107
F 2.1982 -2.4969 -0.1015
N 0.3234 0.0412 1.2402
C -0.2733 1.2585 0.7472
O -0.6842 2.1202 1.5706
C -0.4007 1.5152 -0.7063
C -0.3565 0.4583 -1.6334
C -0.4143 0.7172 -3.0051
C -0.5198 2.0321 -3.4662
C -0.5771 3.0909 -2.5554
C -0.5196 2.8348 -1.1818
C -0.5146 -1.0273 1.8289
C -0.7196 -0.8230 3.3103
N -1.0841 -1.9295 4.1367
O -0.6190 0.3245 3.8210
C -1.8402 -1.1903 1.1017
C -2.9296 -0.3310 1.3563
C -4.1315 -0.4820 0.6566
C -4.2598 -1.4869 -0.3044
C -3.1870 -2.3366 -0.5732
C -1.9824 -2.1935 0.1248
H 2.0011 0.9083 3.2734
H 2.0963 2.0535 1.8937
H 3.4884 0.9604 2.2631
H 2.0661 -1.0111 1.8488
H 2.6429 2.0413 -0.2982
H 3.8375 -0.2854 -3.6818
H -0.2675 -0.5652 -1.3044
H -0.3731 -0.1027 -3.7121
H -0.5533 2.2316 -4.5289
H -0.6379 4.1133 -2.9154
H -0.5311 3.6713 -0.4917
H 0.0342 -1.9898 1.7299
H -1.2582 -1.7880 5.1560
H -1.2076 -2.8818 3.7262
H -2.8493 0.4570 2.0918
H -4.9611 0.1811 0.8585
H -5.1910 -1.6004 -0.8458
H -3.2867 -3.1106 -1.3212
H -1.1583 -2.8614 -0.1041
*
