! B3LYP 6-31G* SP

* xyz 0 1
C 1.9393 -1.5548 -3.2630
C 0.9096 -1.2264 -2.1800
C 1.5016 -0.3347 -1.0609
C 2.6660 -0.9611 -0.3045
C 3.7485 -0.1481 0.0819
C 4.8140 -0.6813 0.8132
C 4.8082 -2.0288 1.1774
C 3.7349 -2.8446 0.8154
C 2.6664 -2.3170 0.0845
N 0.4572 0.1229 -0.1199
C 0.3838 1.5390 0.1497
O 1.3408 2.1007 0.7496
C -0.7763 2.3488 -0.2878
C -1.0736 3.5623 0.3578
C -2.1925 4.3102 -0.0218
C -3.0142 3.8639 -1.0590
C -2.7176 2.6702 -1.7197
C -1.6021 1.9178 -1.3408
C -0.2753 -0.8369 0.7427
C 0.3563 -0.9672 2.1123
N 0.0604 -2.1026 2.9284
O 1.1248 -0.0724 2.5566
C -1.7522 -0.4949 0.8297
C -2.6426 -1.0362 -0.1161
C -3.9938 -0.6782 -0.1043
C -4.4709 0.2288 0.8454
C -3.5968 0.7802 1.7852
C -2.2452 0.4236 1.7802
H 1.4612 -2.1622 -4.0597
H 2.7815 -2.1391 -2.8375
H 2.3352 -0.6208 -3.7167
H 0.0699 -0.6842 -2.6627
H 0.4943 -2.1742 -1.7856
H 1.8977 0.5589 -1.5989
H 3.7687 0.9019 -0.1829
H 5.6433 -0.0479 1.1013
H 5.6336 -2.4398 1.7451
H 3.7282 -3.8873 1.1046
H 1.8473 -2.9735 -0.1688
H -0.4591 3.9166 1.1782
H -2.4220 5.2366 0.4892
H -3.8807 4.4429 -1.3510
H -3.3538 2.3253 -2.5253
H -1.3956 0.9950 -1.8624
H -0.2040 -1.8501 0.2989
H 0.4992 -2.2038 3.8707
H -0.5888 -2.8467 2.5894
H -2.2858 -1.7235 -0.8750
H -4.6696 -1.0965 -0.8392
H -5.5155 0.5106 0.8468
H -3.9636 1.4954 2.5094
H -1.5804 0.8834 2.5001
*
