! B3LYP 6-31G* SP

* xyz 0 1
C -0.0409 -1.9731 2.2729
C 1.3274 -1.4379 1.9620
C 1.5849 -0.4369 1.0170
N 0.6048 0.2326 0.2161
C 0.6020 0.0518 -1.2353
C -0.3855 -1.0150 -1.6143
C -1.6575 -0.6690 -2.0938
C -2.5933 -1.6631 -2.3951
C -2.2705 -3.0220 -2.2118
O -3.1716 -4.0614 -2.4939
C -4.4953 -3.8902 -2.9958
F -4.4610 -3.2560 -4.2253
F -5.0792 -5.1323 -3.1521
F -5.2522 -3.1500 -2.1051
C -1.0026 -3.3608 -1.7252
C -0.0664 -2.3674 -1.4262
S -0.5925 1.2410 0.9708
O -0.2621 1.4342 2.4243
O -1.9391 0.5821 0.8606
C -0.6082 2.8157 0.1855
C -1.8031 3.3650 -0.2962
C -1.7988 4.6093 -0.9338
C -0.5979 5.3208 -1.1002
C -0.5966 6.6361 -1.7780
O 0.4831 7.2630 -1.9537
O -1.7897 7.1945 -2.2291
C 0.5983 4.7631 -0.6128
C 0.5907 3.5200 0.0260
S 3.2424 -0.1247 0.9302
C 3.6517 -1.2400 2.1167
C 4.9217 -1.5352 2.6067
C 5.0374 -2.5063 3.6123
C 3.8914 -3.1565 4.1068
C 2.6190 -2.8434 3.5993
C 2.5086 -1.8747 2.5914
H -0.7509 -1.7547 1.4496
H -0.4153 -1.5120 3.2105
H -0.0039 -3.0755 2.3933
H 1.6149 -0.2356 -1.5927
H 0.3549 1.0122 -1.7360
H -1.9294 0.3714 -2.2260
H -3.5636 -1.3611 -2.7631
H -0.7428 -4.4010 -1.5743
H 0.9040 -2.6515 -1.0382
H -2.7386 2.8329 -0.1829
H -2.7359 5.0114 -1.2983
H -1.8004 8.0940 -2.6953
H 1.5398 5.2863 -0.7254
H 1.5206 3.1023 0.3910
H 5.7979 -1.0281 2.2231
H 6.0127 -2.7556 4.0104
H 3.9906 -3.9017 4.8853
H 1.7460 -3.3470 3.9935
*
