! B3LYP 6-31G* SP

* xyz 0 1
C -1.6144 -3.3620 -0.9787
C -2.5300 -2.2342 -0.6309
O -3.3916 -2.2801 0.3670
C -4.0101 -1.1235 0.4069
C -3.5615 -0.2920 -0.5736
C -2.5946 -0.9966 -1.2741
C -1.7261 -0.5245 -2.4062
C -0.3908 -0.0877 -1.8855
O 0.6049 -0.8480 -2.0283
N -0.2592 1.1718 -1.2088
C 0.9428 1.6059 -0.5606
N 2.0677 0.8644 -0.4732
C 3.0542 1.5075 0.2118
C 4.3829 0.8817 0.4382
C 5.5153 1.6757 0.6992
C 6.7661 1.0882 0.9051
C 6.9201 -0.3048 0.8372
C 8.2639 -0.9336 1.1082
F 8.3604 -2.1742 0.5012
F 9.2805 -0.1323 0.6175
F 8.4285 -1.0859 2.4723
C 5.7895 -1.1027 0.6001
C 4.5360 -0.5193 0.3909
F 3.4712 -1.3323 0.1718
C 2.6986 2.7780 0.6773
S 1.1110 3.0854 0.2122
C -4.0997 0.9844 -0.6997
O -3.7119 1.7539 -1.6206
N -5.0708 1.3792 0.1924
C -5.6830 2.7128 0.0665
C -5.5286 0.5011 1.1595
O -6.4678 0.8491 1.9304
N -4.9772 -0.7536 1.2879
C -5.4669 -1.6973 2.3006
H -0.5647 -3.0679 -0.7720
H -1.7229 -3.6208 -2.0525
H -1.8645 -4.2541 -0.3677
H -1.5942 -1.3510 -3.1369
H -2.2052 0.3108 -2.9545
H -1.0872 1.8062 -1.1691
H 5.4448 2.7545 0.7301
H 7.6161 1.7252 1.1158
H 5.8734 -2.1822 0.5805
H 3.3136 3.4492 1.2605
H -6.5818 2.6502 -0.5825
H -5.9766 3.1131 1.0605
H -4.9709 3.4468 -0.3671
H -4.7385 -2.5171 2.4796
H -6.4281 -2.1390 1.9629
H -5.6228 -1.1783 3.2704
*
