! B3LYP 6-31G* SP

* xyz 0 1
C -3.6358 -1.3117 3.0692
N -3.9294 -0.6706 1.7754
C -3.2784 0.4909 1.4259
O -2.4200 0.9983 2.1980
C -3.5877 1.1109 0.2103
C -3.0566 2.3057 -0.3609
C -1.9620 3.1397 0.2432
C -0.6281 2.4899 0.0277
O 0.0343 2.0909 1.0235
N -0.1141 2.3342 -1.3042
C 1.0835 1.6120 -1.6162
N 1.8337 0.9571 -0.7043
C 2.9066 0.3405 -1.2741
C 3.8524 -0.4631 -0.4630
C 3.3805 -1.1197 0.6855
C 4.2423 -1.8882 1.4675
C 5.5882 -2.0070 1.1217
C 6.0916 -1.3490 -0.0142
C 7.5513 -1.4485 -0.3907
F 8.2501 -2.2750 0.4729
F 7.6638 -1.9591 -1.6713
F 8.1238 -0.1900 -0.3543
C 5.2187 -0.5716 -0.8017
F 5.7179 0.1127 -1.8636
C 2.9958 0.4955 -2.6607
S 1.6998 1.4408 -3.1677
N -3.5809 2.6486 -1.5721
S -4.7120 1.4831 -1.9372
C -4.5480 0.5264 -0.5835
N -5.2067 -0.6150 -0.2493
C -6.2590 -1.1515 -1.1242
C -4.9121 -1.1972 0.9601
O -5.5524 -2.2215 1.3318
H -4.3203 -0.9119 3.8467
H -3.7575 -2.4143 3.0074
H -2.5848 -1.1331 3.3820
H -1.9492 4.1409 -0.2385
H -2.1547 3.3096 1.3233
H -0.6495 2.7551 -2.0964
H 2.3381 -1.0501 0.9716
H 3.8645 -2.3952 2.3461
H 6.2320 -2.6088 1.7498
H 3.7364 0.0557 -3.3141
H -6.4029 -2.2412 -0.9656
H -5.9879 -1.0198 -2.1929
H -7.2154 -0.6254 -0.9217
*
