! B3LYP 6-31G* SP

* xyz 0 1
C 6.0132 2.9267 0.3840
O 4.7379 2.3265 0.5183
C 4.6297 1.2989 1.5149
C 4.4523 2.0043 2.8874
C 3.3746 0.4618 1.1482
C 2.9941 0.3991 -0.2155
C 1.8768 -0.3221 -0.6321
C 1.1160 -1.0409 0.2902
C -0.1517 -1.7254 -0.1404
N -1.2819 -0.8080 0.0054
C -1.4185 0.3007 -0.8909
N -1.7899 0.0543 -2.1742
C -1.9277 1.0394 -3.0936
C -1.6779 2.3680 -2.7420
C -1.8151 3.3897 -3.6944
C -1.5566 4.7149 -3.3436
C -1.1598 5.0300 -2.0442
C -1.0200 4.0230 -1.0855
C -1.2790 2.6742 -1.4165
C -1.1478 1.6248 -0.4700
C -0.6970 1.9088 0.9464
S -2.5857 -1.1990 1.0809
O -2.0340 -1.4796 2.4510
O -3.5375 -0.0393 1.1808
C -3.4459 -2.6013 0.4582
C -4.2204 -2.4800 -0.7013
C -4.8998 -3.5887 -1.2143
C -4.8101 -4.8381 -0.5742
C -5.5291 -6.0148 -1.1104
O -6.2342 -5.9131 -2.1508
O -5.4338 -7.2475 -0.4696
C -4.0237 -4.9544 0.5853
C -3.3448 -3.8439 1.0959
C 1.4945 -1.0415 1.6348
C 2.6178 -0.3270 2.0721
Cl 3.0042 -0.5237 3.7800
C 5.8500 0.3168 1.5335
F 6.1231 -0.1257 0.2505
F 6.9829 0.9207 2.0516
F 5.5805 -0.7910 2.3170
H 6.6944 2.2737 -0.1996
H 6.4750 3.2055 1.3517
H 5.8942 3.8649 -0.1951
H 4.8136 1.3755 3.7264
H 3.3892 2.2834 3.0541
H 5.0312 2.9455 2.9541
H 3.5594 0.9159 -0.9800
H 1.5978 -0.3088 -1.6787
H -0.3122 -2.6386 0.4730
H -0.0752 -2.0610 -1.1977
H -2.2293 0.7804 -4.1012
H -2.1201 3.1626 -4.7091
H -1.6630 5.4999 -4.0812
H -0.9588 6.0598 -1.7779
H -0.7087 4.3139 -0.0917
H 0.3208 2.3521 0.9319
H -1.4041 2.6137 1.4311
H -0.6534 1.0018 1.5794
H -4.2968 -1.5264 -1.2088
H -5.4939 -3.4673 -2.1114
H -5.9225 -8.0592 -0.8281
H -3.9311 -5.9032 1.0984
H -2.7405 -3.9574 1.9865
H 0.9084 -1.6043 2.3518
*
