! B3LYP 6-31G* SP

* xyz 0 1
C -3.7798 4.5450 1.8642
O -3.9577 3.2042 2.3063
C -3.2408 2.1047 1.8113
C -2.2765 2.2279 0.7940
C -1.5897 1.1011 0.3332
C -1.8411 -0.1660 0.8900
C -1.1302 -1.4057 0.3806
N 0.2683 -1.1094 0.0467
C 1.2255 -0.7320 1.0501
O 0.9476 -0.9014 2.2697
C 2.5412 -0.1601 0.6763
C 3.6237 -0.2431 1.5713
C 4.8690 0.2977 1.2380
C 5.0485 0.9391 0.0065
C 6.2842 1.4932 -0.3530
C 6.4253 2.1319 -1.5864
C 5.3292 2.2108 -2.4486
N 4.1352 1.6685 -2.0883
C 3.9668 1.0383 -0.8942
C 2.7226 0.4942 -0.5566
C -1.8547 -1.9563 -0.8367
N -2.1123 -1.0925 -1.8600
C -2.7402 -1.4712 -3.0005
C -3.1466 -2.7901 -3.1646
C -2.8920 -3.7132 -2.1543
C -2.2298 -3.3234 -0.9733
C -1.9560 -4.3529 0.1064
F -2.3381 -5.6245 -0.2862
F -2.6632 -4.0272 1.2493
F -0.6024 -4.3866 0.3917
C -2.8151 -0.2848 1.8944
C -3.5031 0.8418 2.3526
H -2.7394 4.8750 2.0616
H -4.4742 5.2065 2.4214
H -4.0068 4.6236 0.7809
H -2.0538 3.1883 0.3495
H -0.8629 1.2186 -0.4605
H -1.1233 -2.1469 1.2025
H 0.5886 -1.2156 -0.9417
H 3.5101 -0.7377 2.5277
H 5.6891 0.2138 1.9409
H 7.1338 1.4352 0.3163
H 7.3758 2.5640 -1.8718
H 5.4279 2.7053 -3.4056
H 1.8993 0.6068 -1.2494
H -2.9242 -0.7441 -3.7801
H -3.6524 -3.0969 -4.0711
H -3.2143 -4.7348 -2.3062
H -3.0439 -1.2516 2.3236
H -4.2471 0.7326 3.1320
*
