! B3LYP 6-31G* SP

* xyz 0 1
O -1.1610 5.5160 0.3247
C -0.7295 4.9014 -0.6887
O 0.0409 5.5866 -1.6246
C -1.0368 3.4677 -0.8831
C -1.7485 2.7470 0.0929
C -2.0220 1.3882 -0.0892
C -1.5892 0.7298 -1.2471
S -1.8923 -0.9945 -1.4497
O -1.9384 -1.3286 -2.9145
O -3.2396 -1.2996 -0.8543
N -0.6753 -1.9801 -0.6733
C 0.7334 -1.7798 -1.0490
C 1.2670 -0.4280 -0.6324
C 0.9180 0.1545 0.5983
C 1.4428 1.3940 0.9717
C 2.3418 2.0699 0.1265
O 2.8980 3.3181 0.4527
C 2.6633 4.0289 1.6663
F 3.3938 5.2024 1.6487
F 3.0685 3.2678 2.7483
F 1.3216 4.3408 1.7857
C 2.7042 1.4803 -1.0887
C 2.1828 0.2385 -1.4615
C -1.0882 -3.2824 -0.2091
N -2.0298 -3.9762 -0.9187
C -2.4774 -5.2114 -0.5498
C -1.9782 -5.8278 0.6024
Cl -2.5485 -7.4170 1.0867
C -1.0196 -5.1346 1.3373
S -0.2500 -5.6101 2.7532
C 0.6762 -4.2096 2.9079
C 0.3868 -3.3546 1.8472
C -0.5655 -3.8781 0.9580
C -0.8948 1.4465 -2.2303
C -0.6147 2.8035 -2.0476
H 0.2590 6.5680 -1.5005
H -2.0828 3.2291 1.0033
H -2.5537 0.8457 0.6826
H 1.3820 -2.5576 -0.5943
H 0.8208 -1.9055 -2.1503
H 0.2018 -0.3217 1.2525
H 1.1325 1.8191 1.9152
H 3.3984 1.9867 -1.7468
H 2.4866 -0.1979 -2.4048
H -3.2266 -5.7093 -1.1519
H 1.3801 -4.0055 3.7033
H 0.8717 -2.4004 1.7383
H -0.5477 0.9504 -3.1272
H -0.0620 3.3292 -2.8157
*
