! B3LYP 6-31G* SP

* xyz 0 1
C -2.7292 1.4114 2.5613
N -3.5282 0.8429 1.4587
C -3.0416 0.8813 0.1787
O -1.9085 1.3925 -0.0293
C -3.8047 0.3648 -0.8959
C -3.3770 0.3525 -2.2644
C -2.0287 0.8579 -2.7448
C -0.9273 -0.0967 -2.3792
O -1.0618 -1.3231 -2.6393
N 0.2925 0.4006 -1.8067
C 1.2928 -0.4185 -1.1849
N 2.4683 0.0810 -0.7494
C 3.2478 -0.8665 -0.1550
C 4.5854 -0.5303 0.4001
C 4.9518 0.8158 0.5743
C 6.2043 1.1542 1.0934
C 7.1241 0.1527 1.4489
C 8.4837 0.4980 2.0079
F 8.6543 1.8659 2.1359
F 8.6306 -0.0804 3.2557
F 9.4658 0.0096 1.1653
C 6.7652 -1.1944 1.2683
F 7.6336 -2.1869 1.5905
C 5.5112 -1.5313 0.7491
C 2.6703 -2.1402 -0.1064
S 1.1548 -2.0574 -0.8298
C -4.2289 -0.1952 -3.2370
C -5.4706 -0.6974 -2.8772
N -5.8608 -0.6736 -1.5829
C -5.0796 -0.1717 -0.5855
N -5.5382 -0.1854 0.7052
C -6.8842 -0.7159 0.9960
C -4.7823 0.3545 1.7114
O -5.2483 0.4077 2.8856
H -2.9380 2.4983 2.6507
H -1.6414 1.2607 2.3913
H -2.9581 0.9151 3.5285
H -2.0190 0.9728 -3.8504
H -1.8365 1.8785 -2.3552
H 0.4593 1.4319 -1.8193
H 4.2661 1.6131 0.3162
H 6.4472 2.2018 1.2150
H 5.2816 -2.5781 0.6093
H 3.0918 -3.0307 0.3374
H -3.9340 -0.2360 -4.2786
H -6.1278 -1.1130 -3.6293
H -7.0898 -1.6274 0.3949
H -6.9910 -1.0216 2.0583
H -7.6473 0.0566 0.7638
*
