! B3LYP 6-31G* SP

* xyz 0 1
C -1.7424 -1.5062 -2.4852
C -0.3484 -1.4859 -1.8427
C 0.0694 -2.8032 -1.2069
C -0.8537 -3.6806 -0.5991
C -0.4160 -4.8622 0.0074
C 0.9428 -5.1828 0.0214
F 1.3638 -6.3321 0.6067
C 1.8707 -4.3141 -0.5586
C 1.4386 -3.1274 -1.1605
N -0.2084 -0.3684 -0.8882
C -0.9377 -0.3418 0.3951
C -2.3020 0.2857 0.2437
C -3.4582 -0.4439 0.5653
C -4.7208 0.1358 0.4236
C -4.8441 1.4478 -0.0344
C -3.6987 2.2033 -0.3400
C -3.8196 3.5961 -0.8233
O -4.9574 4.1198 -0.9802
O -2.6797 4.3381 -1.1167
C -2.4297 1.6189 -0.1812
C 0.5336 0.7953 -1.2980
O 0.3118 1.2985 -2.4308
C 1.5334 1.4225 -0.4056
C 1.7992 2.7996 -0.4863
N 2.7085 3.3754 0.3453
C 3.3864 2.6535 1.2752
C 4.3045 3.2847 2.1227
C 4.9940 2.5392 3.0849
C 4.7721 1.1625 3.2000
C 3.8574 0.5228 2.3568
C 3.1625 1.2625 1.3890
C 2.2366 0.6528 0.5342
H -1.8104 -2.3324 -3.2237
H -1.9212 -0.5503 -3.0185
H -2.5427 -1.6339 -1.7359
H 0.3503 -1.3181 -2.6955
H -1.9098 -3.4537 -0.5680
H -1.1322 -5.5284 0.4714
H 2.9247 -4.5545 -0.5380
H 2.1771 -2.4584 -1.5897
H -1.0224 -1.3673 0.8087
H -0.3724 0.2373 1.1555
H -3.3851 -1.4659 0.9186
H -5.6069 -0.4348 0.6684
H -5.8361 1.8713 -0.1437
H -2.7496 5.2916 -1.4603
H -1.5417 2.2014 -0.3849
H 1.2688 3.4195 -1.1954
H 4.4775 4.3480 2.0474
H 5.7002 3.0273 3.7444
H 5.3025 0.5916 3.9503
H 3.6978 -0.5396 2.4549
H 2.0633 -0.4170 0.6004
*
