! B3LYP def2-TZVP SP

* xyz 0 1
O -1.2241 -1.4776 -0.4809
C -2.2025 -0.7056 -0.2979
N -3.3181 -1.1248 0.4971
C -3.2935 -2.3542 1.2933
C -3.6997 -3.6619 0.6189
C -4.3126 -3.6272 -0.6488
C -4.7019 -4.8052 -1.2916
C -4.5030 -6.0397 -0.6703
C -3.9161 -6.0956 0.5948
C -3.5200 -4.9199 1.2386
C -3.7875 -2.1568 2.7213
C -2.2981 -2.3252 2.4484
C -2.1944 0.6422 -0.9080
C -1.5281 1.7137 -0.2573
C -0.7275 1.4614 1.0134
N 0.4686 0.6369 0.7394
C 1.0799 0.2016 2.0127
C 2.2438 -0.7572 1.7449
C 3.3030 -0.0705 0.8533
N 4.4626 -0.9339 0.5043
C 5.5081 -0.9120 1.5560
C 6.5911 -1.9907 1.3406
C 6.6696 -2.4118 -0.1289
C 5.3183 -2.9584 -0.6249
C 4.1226 -2.3141 0.0965
C 2.6466 0.4855 -0.4210
C 1.4590 1.3865 -0.0660
C -1.5687 3.0000 -0.8539
C -0.8854 4.1666 -0.2705
C -1.4180 4.8125 0.8531
C -0.7742 5.9289 1.3885
C 0.4047 6.4051 0.8078
C 0.9549 5.7639 -0.3142
C 2.2062 6.3099 -0.9552
F 1.8771 7.3887 -1.7550
F 3.0991 6.7249 0.0182
F 2.8278 5.3486 -1.7332
C 0.2833 4.6605 -0.8683
N -2.2263 3.1842 -2.0262
C -2.8631 2.1793 -2.6742
C -3.5149 2.4456 -3.8841
C -4.1579 1.4172 -4.5769
Br -5.0369 1.7849 -6.2308
C -4.1435 0.1175 -4.0668
C -3.4941 -0.1576 -2.8600
C -2.8565 0.8731 -2.1374
H -4.1847 -0.5414 0.4978
H -4.5115 -2.6874 -1.1436
H -5.1603 -4.7631 -2.2700
H -4.8084 -6.9516 -1.1660
H -3.7801 -7.0511 1.0845
H -3.0909 -5.0105 2.2249
H -4.0699 -1.1185 3.0001
H -4.2466 -3.0384 3.2162
H -1.7378 -1.3790 2.5701
H -1.8749 -3.2851 2.7984
H -1.3985 0.9360 1.7287
H -0.4332 2.3993 1.5270
H 1.4375 1.0757 2.6036
H 0.3349 -0.3351 2.6342
H 2.6945 -1.0568 2.7153
H 1.8295 -1.6617 1.2518
H 3.6783 0.8165 1.4156
H 6.0034 0.0856 1.5343
H 5.0621 -1.0471 2.5672
H 6.3558 -2.8852 1.9589
H 7.5794 -1.6042 1.6716
H 7.4548 -3.1878 -0.2537
H 6.9644 -1.5300 -0.7405
H 5.2819 -4.0599 -0.4680
H 5.2374 -2.7704 -1.7181
H 3.8642 -2.9249 0.9914
H 3.2527 -2.3302 -0.5945
H 2.2828 -0.3380 -1.0716
H 3.3939 1.0749 -0.9933
H 1.0058 1.7205 -1.0229
H 1.8153 2.2892 0.4801
H -2.3298 4.4531 1.3116
H -1.1903 6.4262 2.2542
H 0.8874 7.2762 1.2339
H 0.6683 4.1763 -1.7571
H -3.5188 3.4502 -4.2900
H -4.6288 -0.6831 -4.6095
H -3.4798 -1.1786 -2.5112
*
