! B3LYP 6-31G* SP

* xyz 0 1
O -2.1908 1.0264 0.8469
C -1.6147 0.7470 -0.2397
N -2.1156 -0.3194 -1.0649
C -3.0173 -1.3337 -0.5919
C -2.9433 -1.8233 0.7259
C -3.8097 -2.8350 1.1514
C -4.7460 -3.3749 0.2656
F -5.5850 -4.3559 0.6804
C -4.8110 -2.9095 -1.0506
C -3.9454 -1.8988 -1.4801
N -0.4405 1.4864 -0.6252
C -0.1786 1.7638 -2.0431
C 0.4258 3.1539 -2.2083
C 1.6130 3.3291 -1.3090
C 2.6400 4.2164 -1.6513
N 3.6761 4.4202 -0.7983
C 3.7285 3.7825 0.3986
N 2.7356 2.9301 0.7595
C 1.6799 2.6822 -0.0635
C 0.5933 1.7329 0.4004
C 1.1898 0.4119 0.8450
C 2.0083 -0.3343 -0.0203
C 2.5120 -1.5759 0.3759
C 2.1837 -2.1098 1.6336
C 2.7606 -3.4296 2.0803
F 1.8885 -4.0764 2.9384
F 3.9552 -3.2047 2.7376
F 2.9920 -4.2567 0.9950
C 1.3798 -1.3557 2.5046
C 0.8781 -0.1127 2.1096
H -1.8123 -0.3749 -2.0623
H -2.2017 -1.4458 1.4177
H -3.7481 -3.2060 2.1665
H -5.5308 -3.3322 -1.7396
H -4.0026 -1.5487 -2.5031
H -1.1228 1.7362 -2.6289
H 0.5122 0.9958 -2.4517
H -0.3349 3.9219 -1.9500
H 0.7197 3.2941 -3.2716
H 2.6150 4.7500 -2.5928
H 4.5588 3.9590 1.0686
H 0.1085 2.2370 1.2659
H 2.2620 0.0481 -1.0007
H 3.1555 -2.1202 -0.3034
H 1.1364 -1.7293 3.4912
H 0.2429 0.4385 2.7917
*
