! B3LYP 6-31G* SP

* xyz -1 1
C -1.0558 -1.8502 -1.9032
C -1.9707 -1.1863 -0.8973
C -1.4401 -0.3619 0.1239
N -0.0405 -0.0567 0.1861
C 0.5462 0.8698 -0.7867
C 0.5114 2.2772 -0.2571
C 1.6630 2.8584 0.3003
C 1.6135 4.1522 0.8276
C 0.4160 4.8729 0.8038
C -0.7343 4.3003 0.2534
C -0.6894 3.0061 -0.2733
S 0.8319 -0.4567 1.6344
O 0.7436 0.6924 2.6002
O 0.2260 -1.6764 2.2713
C 2.5116 -0.8107 1.2430
C 3.5525 -0.0557 1.7989
C 4.8806 -0.3338 1.4633
C 5.1868 -1.3738 0.5684
C 6.5933 -1.6651 0.2141
O 6.8741 -2.6166 -0.5631
O 7.6259 -0.8928 0.7349
C 4.1365 -2.1301 0.0170
C 2.8096 -1.8489 0.3535
N -2.2620 0.1648 1.0698
C -3.6008 -0.0411 1.0683
C -4.1919 -0.8071 0.0609
C -5.5817 -1.0012 0.0435
C -6.1712 -1.7598 -0.9679
C -5.3813 -2.3267 -1.9678
C -3.9959 -2.1439 -1.9614
C -3.3756 -1.3859 -0.9434
H -1.2034 -1.3906 -2.9025
H -1.2758 -2.9368 -1.9569
H 0.0149 -1.7642 -1.6310
H -0.0129 0.8286 -1.7470
H 1.5877 0.5608 -1.0182
H 2.5964 2.3109 0.3292
H 2.5029 4.5953 1.2568
H 0.3791 5.8741 1.2129
H -1.6618 4.8582 0.2377
H -1.5892 2.5711 -0.6911
H 3.3402 0.7523 2.4864
H 5.6662 0.2661 1.9041
H 4.3394 -2.9367 -0.6761
H 2.0130 -2.4376 -0.0833
H -4.2032 0.4073 1.8488
H -6.2111 -0.5643 0.8101
H -7.2436 -1.9054 -0.9787
H -5.8445 -2.9095 -2.7536
H -3.4255 -2.5923 -2.7632
*
