! B3LYP 6-31G* SP

* xyz 0 1
C -1.4753 2.0406 1.5941
C -2.2379 1.4971 0.3877
N -1.9116 0.0803 0.1354
C -0.5551 -0.3121 -0.1405
O -0.1563 -1.4460 0.2200
C 0.3976 0.5796 -0.8319
C 0.0210 1.2029 -2.0301
C 0.9041 2.0547 -2.6917
C 2.1725 2.2875 -2.1670
C 2.5687 1.6608 -0.9853
C 1.6894 0.7926 -0.3102
O 2.0555 0.1375 0.8772
C 3.3188 0.2492 1.5290
C 4.4296 -0.3999 0.7264
C 4.1465 -1.5517 -0.0402
C 5.1490 -2.1710 -0.7902
C 6.4512 -1.6675 -0.7701
C 6.7631 -0.5600 0.0269
C 5.7693 0.0745 0.7942
C 6.1458 1.2639 1.6403
C -2.9729 -0.9508 0.1420
C -3.7191 -1.0192 1.5070
C -5.1753 -0.5368 1.4272
C -5.9808 -1.2751 0.3410
C -5.1548 -1.6679 -0.9096
N -5.9821 -1.5887 -2.1144
C -3.9180 -0.7671 -1.0630
H -0.4073 2.1888 1.3431
H -1.5513 1.3420 2.4529
H -1.9006 3.0257 1.8892
H -2.0088 2.1118 -0.5051
H -3.3191 1.6241 0.5825
H -0.9558 1.0229 -2.4559
H 0.6028 2.5367 -3.6117
H 2.8532 2.9523 -2.6794
H 3.5580 1.8633 -0.6055
H 3.2534 -0.2641 2.5068
H 3.5148 1.3210 1.7297
H 3.1455 -1.9701 -0.0615
H 4.9143 -3.0469 -1.3861
H 7.2266 -2.1506 -1.3528
H 7.7833 -0.2030 0.0521
H 7.2495 1.3929 1.6990
H 5.7129 2.1858 1.1968
H 5.7694 1.1330 2.6765
H -2.5065 -1.9526 0.0002
H -3.1830 -0.4314 2.2867
H -3.7249 -2.0768 1.8627
H -5.6637 -0.6765 2.4139
H -5.1984 0.5516 1.2124
H -6.8271 -0.6194 0.0493
H -6.4223 -2.1979 0.7758
H -4.8068 -2.7206 -0.7839
H -5.4342 -1.9735 -2.9194
H -6.8004 -2.2320 -1.9965
H -4.2456 0.2909 -1.1588
H -3.3707 -1.0351 -1.9933
*
