! B3LYP 6-31G* SP

* xyz 0 1
C 5.8293 -1.0203 1.0549
C 5.4323 -0.5715 -0.3453
N 4.2643 0.2974 -0.2818
N 4.3173 1.6092 -0.1314
N 3.0830 2.0788 -0.0527
C 2.2868 0.9948 -0.1526
C 0.8137 1.0114 -0.1092
S -0.1345 -0.3750 -0.2155
C -1.5951 0.4547 -0.0915
C -2.9442 -0.1562 -0.1103
C -3.1074 -1.5481 -0.2401
C -4.3863 -2.1132 -0.2565
C -5.5174 -1.3002 -0.1441
O -6.7849 -1.8777 -0.1621
C -5.3655 0.0859 -0.0145
C -4.0884 0.6546 0.0023
N -1.3791 1.7842 0.0308
C -0.0567 2.1039 0.0221
O 0.3430 3.4343 0.1373
N 3.0142 -0.1316 -0.2892
H 6.7195 -1.6814 0.9970
H 6.0773 -0.1380 1.6824
H 4.9951 -1.5817 1.5267
H 6.2794 -0.0263 -0.8149
H 5.2022 -1.4620 -0.9694
H -2.2509 -2.2034 -0.3290
H -4.4983 -3.1854 -0.3569
H -7.6242 -1.3154 -0.0826
H -6.2360 0.7235 0.0731
H -3.9976 1.7289 0.1035
H 1.3092 3.7258 0.1317
*
