! B3LYP 6-31G* SP

* xyz 0 1
C -2.0017 1.1885 -3.4018
C -2.7960 0.7305 -2.2226
O -3.6315 -0.2896 -2.2614
C -4.1363 -0.4312 -1.0584
C -3.6368 0.5026 -0.2026
C -2.7601 1.2825 -0.9409
C -1.8806 2.4071 -0.4704
C -0.4914 1.9069 -0.2133
O 0.4315 2.2118 -1.0163
N -0.2263 1.0723 0.9249
C 1.0535 0.4939 1.2092
N 2.1510 0.6641 0.4418
C 3.2330 -0.0002 0.9369
C 4.5525 0.0562 0.2540
C 4.7862 1.0347 -0.7257
C 6.0152 1.1054 -1.3799
C 7.0352 0.2007 -1.0753
Cl 8.5611 0.3529 -1.9432
C 6.8260 -0.7986 -0.0995
C 7.9208 -1.7907 0.2336
F 7.5280 -2.6846 1.2153
F 9.0384 -1.1139 0.6876
F 8.2542 -2.5109 -0.8992
C 5.5784 -0.8611 0.5547
C 2.9837 -0.7036 2.1212
S 1.3685 -0.4813 2.5371
C -4.0550 0.5214 1.1237
O -3.6186 1.3970 1.9197
N -4.9626 -0.4261 1.5401
C -5.4520 -0.4107 2.9291
C -5.4758 -1.3438 0.6400
O -6.3583 -2.1667 1.0160
N -5.0402 -1.3676 -0.6658
C -5.5887 -2.3261 -1.6333
H -2.1750 2.2706 -3.5767
H -0.9222 1.0108 -3.2170
H -2.3095 0.6252 -4.3074
H -1.8587 3.2032 -1.2453
H -2.2850 2.8712 0.4509
H -1.0095 0.8618 1.5822
H 4.0199 1.7554 -0.9829
H 6.1750 1.8711 -2.1287
H 5.4021 -1.6363 1.2852
H 3.6935 -1.2770 2.7001
H -4.6822 -0.0155 3.6258
H -6.3623 0.2215 2.9956
H -5.6931 -1.4368 3.2802
H -4.9137 -2.4509 -2.5070
H -5.7071 -3.3269 -1.1656
H -6.5776 -1.9692 -1.9904
*
