! B3LYP 6-31G* SP

* xyz 0 1
C 7.2587 -0.6724 -1.7802
N 6.2993 -0.1220 -0.8059
C 5.0521 -0.6877 -0.6830
O 4.7312 -1.6839 -1.3879
C 4.1412 -0.1511 0.2347
C 2.8319 -0.5971 0.5427
C 2.1705 -1.7904 -0.1140
C 0.7502 -2.0052 0.3253
O 0.5051 -2.8665 1.2118
N -0.3002 -1.2037 -0.2403
C -1.6793 -1.2487 0.1556
N -2.6217 -0.4754 -0.4241
C -3.8578 -0.6751 0.1137
C -5.0365 0.0918 -0.3566
C -4.8525 1.3933 -0.8477
C -5.9368 2.1354 -1.3119
C -7.2237 1.5970 -1.2874
F -8.2455 2.3400 -1.7832
C -7.4441 0.3007 -0.7781
C -8.8295 -0.3118 -0.7972
F -8.9991 -1.1774 0.2693
F -9.0004 -1.0117 -1.9768
F -9.8103 0.6600 -0.7049
C -6.3350 -0.4617 -0.3490
F -6.5136 -1.7585 0.0136
C -3.8958 -1.6106 1.1510
S -2.3384 -2.2019 1.3772
C 2.2313 0.1809 1.5441
S 3.2936 1.3985 2.0194
C 4.5285 0.9526 0.9680
N 5.7433 1.5496 0.8154
C 6.1021 2.7162 1.6369
C 6.6355 0.9977 -0.0730
O 7.7760 1.5221 -0.2199
H 7.1152 -1.7653 -1.9188
H 8.3059 -0.5403 -1.4337
H 7.1305 -0.1616 -2.7577
H 2.7646 -2.7015 0.1150
H 2.1741 -1.6476 -1.2154
H -0.0426 -0.5211 -0.9883
H -3.8659 1.8397 -0.8713
H -5.7770 3.1336 -1.6991
H -4.7583 -1.8869 1.7416
H 1.2434 0.0378 1.9605
H 5.2427 3.4151 1.7195
H 6.3994 2.3790 2.6522
H 6.9374 3.2958 1.1909
*
