! B3LYP 6-31G* SP

* xyz 0 1
C -1.7389 1.8165 -1.9553
C -1.4404 1.2673 -0.7662
C -1.6517 2.0677 0.5081
C -0.3874 2.8630 0.8616
C -2.1044 1.1683 1.6766
C -1.2926 -0.1270 1.7874
C -1.2391 -0.9377 0.4707
C -2.5529 -1.7490 0.1753
C -3.5994 -1.0207 -0.6904
C -2.2207 -3.1012 -0.4781
C -0.7287 -0.0711 -0.7129
O 0.6721 0.1765 -0.5807
C 1.6623 -0.7735 -0.8630
O 1.3415 -1.9114 -1.3052
C 3.0855 -0.4360 -0.6449
C 4.0960 -1.3834 -0.8964
C 5.4394 -1.0573 -0.6856
C 5.7880 0.2137 -0.2232
C 4.7939 1.1617 0.0291
C 3.4489 0.8411 -0.1799
H -2.1881 2.8029 -2.0187
H -1.5363 1.2895 -2.8827
H -2.4665 2.8090 0.3441
H -0.5821 3.5189 1.7366
H -0.0910 3.5087 0.0074
H 0.4582 2.1889 1.1078
H -3.1793 0.9215 1.5716
H -2.0199 1.7268 2.6344
H -1.7124 -0.7524 2.6048
H -0.2551 0.1294 2.0944
H -0.4505 -1.6975 0.6677
H -3.0449 -1.9868 1.1442
H -3.8725 -0.0366 -0.2707
H -3.2359 -0.8796 -1.7296
H -4.5311 -1.6241 -0.7376
H -1.7035 -2.9520 -1.4497
H -3.1491 -3.6860 -0.6537
H -1.5660 -3.7026 0.1882
H -0.8957 -0.6230 -1.6649
H 3.8493 -2.3752 -1.2544
H 6.2107 -1.7911 -0.8808
H 6.8284 0.4640 -0.0607
H 5.0653 2.1465 0.3868
H 2.6968 1.5933 0.0206
*
