! B3LYP 6-31G* SP

* xyz 0 1
C 4.0206 4.5221 3.0270
C 3.4493 3.3963 2.2356
N 2.7727 2.3635 2.7950
C 2.3958 1.4644 1.8508
C 1.6589 0.3100 2.1121
C 1.2943 -0.5175 1.0370
C 1.6622 -0.1840 -0.2883
C 1.1773 -1.0249 -1.4377
N -0.2763 -0.8990 -1.5917
C -1.1490 -1.8997 -1.0491
N -1.9046 -1.5836 0.0348
C -2.7285 -2.4752 0.6351
C -2.8151 -3.7838 0.1551
C -3.6475 -4.7173 0.7918
C -3.7256 -6.0265 0.3164
C -2.9740 -6.4138 -0.7927
C -2.1432 -5.4940 -1.4382
C -2.0541 -4.1604 -0.9801
C -1.2301 -3.1945 -1.6158
C -0.4657 -3.5308 -2.8774
S -0.9629 0.5493 -2.2670
O -2.4505 0.3901 -2.4143
O -0.3723 0.7742 -3.6309
C -0.6392 1.9301 -1.2204
C 0.0634 3.0425 -1.7024
C 0.3816 4.1003 -0.8456
C 0.0041 4.0593 0.5086
C 0.3867 5.1492 1.4324
O 1.0252 6.1507 1.0090
O 0.0563 5.0729 2.7829
C -0.7227 2.9527 0.9793
C -1.0457 1.8998 0.1189
C 2.4343 0.9711 -0.5282
C 2.7791 1.7717 0.5562
S 3.6288 3.2185 0.5609
H 5.0723 4.2900 3.2939
H 3.9905 5.4571 2.4295
H 3.4302 4.6715 3.9553
H 1.3573 0.0628 3.1218
H 0.7075 -1.4058 1.2322
H 1.4581 -2.0837 -1.2478
H 1.6740 -0.7273 -2.3863
H -3.3038 -2.1621 1.4976
H -4.2345 -4.4348 1.6577
H -4.3672 -6.7439 0.8114
H -3.0333 -7.4327 -1.1534
H -1.5698 -5.8429 -2.2859
H -1.1432 -4.0037 -3.6187
H 0.3659 -4.2254 -2.6361
H -0.0453 -2.6335 -3.3740
H 0.3872 3.0847 -2.7339
H 0.9430 4.9388 -1.2382
H 0.3243 5.8080 3.4262
H -1.0285 2.8911 2.0160
H -1.5912 1.0502 0.5054
H 2.7230 1.2577 -1.5317
*
