! B3LYP 6-31G* SP

* xyz -1 1
C 2.5224 -0.0949 -1.3975
C 2.0457 -0.9846 -0.2709
C 1.0965 -0.5111 0.6655
N 0.4736 0.7699 0.5141
C -0.5650 0.9670 -0.5006
C -1.8189 0.2319 -0.1146
C -2.7737 0.7543 0.7533
C -3.6409 -0.2831 1.0053
C -4.7476 -0.3418 1.8496
C -5.4175 -1.5716 1.9700
C -4.9605 -2.7055 1.2646
C -3.8342 -2.6182 0.4265
C -3.1992 -1.3769 0.3042
N -2.0952 -1.0693 -0.4116
C -1.2720 -2.0020 -1.1912
C -2.0292 -2.7078 -2.3091
C -1.0543 -1.5971 -2.6428
S 0.7600 1.9887 1.7158
O -0.4038 2.0431 2.6653
O 2.0009 1.6547 2.4963
C 0.9926 3.5464 0.9305
C 2.1920 3.8149 0.2609
C 2.3785 5.0392 -0.3872
C 1.3625 6.0121 -0.3782
C 1.5538 7.3094 -1.0630
O 2.6334 7.5658 -1.6601
O 0.5439 8.2648 -1.0569
C 0.1575 5.7327 0.2902
C -0.0261 4.5075 0.9379
N 0.7355 -1.2854 1.7221
C 1.2285 -2.5328 1.9121
C 2.1253 -3.0806 0.9917
C 2.6092 -4.3863 1.1666
C 3.4940 -4.9366 0.2388
C 3.8987 -4.1919 -0.8688
C 3.4275 -2.8892 -1.0537
C 2.5388 -2.3074 -0.1224
H 2.2281 0.9644 -1.2560
H 2.1052 -0.4558 -2.3609
H 3.6313 -0.1016 -1.4457
H -0.8013 2.0471 -0.6011
H -0.1970 0.6384 -1.4901
H -2.7946 1.7452 1.1882
H -5.0762 0.5279 2.4041
H -6.2813 -1.6523 2.6171
H -5.4752 -3.6510 1.3757
H -3.4736 -3.4947 -0.0943
H -0.4912 -2.5973 -0.6747
H -1.6521 -3.7235 -2.5524
H -3.0928 -2.4156 -2.4444
H -0.0959 -1.9515 -3.0772
H -1.5547 -0.6622 -2.9741
H 2.9817 3.0745 0.2377
H 3.3162 5.2224 -0.8969
H -0.6452 6.4589 0.3111
H -0.9653 4.3085 1.4378
H 0.9013 -3.1025 2.7731
H 2.3001 -4.9814 2.0179
H 3.8632 -5.9448 0.3761
H 4.5795 -4.6265 -1.5895
H 3.7571 -2.3551 -1.9342
*
