! B3LYP 6-31G* SP

* xyz 0 1
C -5.9718 -0.4970 -1.1409
C -5.4664 -0.0816 0.2344
N -4.0662 -0.4545 0.3885
N -3.6514 -1.6215 0.8506
N -2.3294 -1.6540 0.8041
C -1.9709 -0.4613 0.2859
C -0.5810 -0.0536 0.0437
S 0.7758 -0.9904 0.3733
C 1.8626 0.1791 -0.1773
C 3.3378 0.0489 -0.1959
C 3.9680 -1.1211 0.2691
C 5.3619 -1.2314 0.2461
C 6.1413 -0.1789 -0.2395
F 7.4925 -0.2887 -0.2605
C 5.5274 0.9868 -0.7034
C 4.1340 1.1024 -0.6827
N 1.2055 1.2804 -0.6117
C -0.1436 1.1548 -0.4910
O -1.0105 2.1712 -0.8790
N -3.0481 0.3003 0.0129
H -5.8821 -1.5972 -1.2642
H -5.3808 0.0092 -1.9336
H -7.0387 -0.2093 -1.2495
H -6.0751 -0.5795 1.0198
H -5.5756 1.0180 0.3536
H 3.3892 -1.9519 0.6505
H 5.8372 -2.1351 0.6057
H 6.1307 1.8029 -1.0799
H 3.6812 2.0158 -1.0476
H -0.6533 3.0370 -1.2644
*
