! B3LYP 6-31G* SP

* xyz 0 1
C 0.6117 -1.6389 -2.4027
C -0.3546 -1.9813 -1.3020
C -0.9034 -3.2705 -1.2420
C -1.7858 -3.6128 -0.2123
C -2.3328 -4.9010 -0.1207
C -3.2055 -5.2167 0.9253
C -3.5368 -4.2505 1.8821
Cl -4.6309 -4.6545 3.1924
C -2.9957 -2.9628 1.7954
C -2.1213 -2.6401 0.7518
N -1.5950 -1.3913 0.6650
C -0.7421 -1.0314 -0.3317
N -0.2145 0.3008 -0.3447
C 0.6393 0.7537 0.7542
C 1.9860 0.0924 0.6590
C 3.0060 0.6770 -0.1044
C 4.2313 0.0236 -0.2654
C 4.4490 -1.2343 0.3277
O 5.6537 -1.9412 0.1872
C 6.7800 -1.5071 -0.5711
F 6.4235 -1.3262 -1.8942
F 7.7657 -2.4722 -0.5017
F 7.2768 -0.3257 -0.0497
C 3.4263 -1.8150 1.0863
C 2.2021 -1.1613 1.2487
S -0.7317 1.4263 -1.5626
O 0.4570 1.8257 -2.3914
O -1.7605 0.7897 -2.4544
C -1.4499 2.8355 -0.7911
C -1.0949 4.1293 -1.1937
C -1.6558 5.2418 -0.5600
C -2.5815 5.0748 0.4862
C -3.1735 6.2490 1.1634
O -2.8737 7.4168 0.7962
O -4.0705 6.0746 2.2139
C -2.9376 3.7731 0.8800
C -2.3758 2.6625 0.2438
H 1.4000 -0.9504 -2.0364
H 0.0656 -1.1635 -3.2437
H 1.1205 -2.5513 -2.7807
H -0.6325 -4.0084 -1.9886
H -2.0849 -5.6601 -0.8523
H -3.6229 -6.2132 0.9917
H -3.2548 -2.2167 2.5367
H 0.1569 0.5199 1.7284
H 0.7644 1.8577 0.7188
H 2.8477 1.6335 -0.5858
H 4.9948 0.5028 -0.8599
H 3.5782 -2.7842 1.5434
H 1.4175 -1.6399 1.8214
H -0.3838 4.2804 -1.9954
H -1.3622 6.2317 -0.8869
H -4.4818 6.8720 2.6849
H -3.6480 3.6110 1.6802
H -2.6590 1.6667 0.5614
*
