! B3LYP def2-TZVP SP

* xyz 0 1
O 2.3361 0.3320 -2.1007
C 1.7197 0.2335 -1.0045
N 2.4514 0.1901 0.2353
C 3.8809 0.3129 0.3304
C 4.5967 1.2149 -0.4749
C 5.9844 1.3247 -0.3487
C 6.6793 0.5558 0.5924
O 8.0728 0.7091 0.6761
C 8.9223 0.0288 1.5960
F 10.2244 0.4404 1.3912
F 8.8498 -1.3373 1.3910
F 8.5573 0.3319 2.8948
C 5.9605 -0.3301 1.4168
C 4.5727 -0.4409 1.2898
N 0.2830 0.1465 -1.0139
C -0.4831 1.0726 -1.8561
C -1.7178 0.3773 -2.4361
C -2.5643 -0.2938 -1.3335
C -1.6732 -1.2875 -0.5499
C -0.4294 -0.6029 0.0283
C -3.7680 -1.0180 -1.9851
C -4.7696 -1.5479 -0.9373
O -5.9551 -1.9577 -1.5747
C -5.0537 -0.5330 0.1535
C -6.1549 -0.7013 1.0098
C -6.3997 0.2164 2.0336
C -5.5421 1.3016 2.2217
C -4.4295 1.4686 1.3918
Br -3.2505 2.9452 1.6850
C -4.1735 0.5474 0.3673
O -3.0475 0.7174 -0.4455
H 1.9328 -0.0106 1.1176
H 4.0852 1.8543 -1.1822
H 6.5232 2.0211 -0.9788
H 6.4594 -0.9346 2.1604
H 4.0344 -1.1263 1.9322
H 0.1358 1.4519 -2.6980
H -0.7944 1.9475 -1.2461
H -2.3294 1.1315 -2.9784
H -1.3845 -0.3860 -3.1743
H -2.2389 -1.7405 0.2913
H -1.3489 -2.1109 -1.2233
H -0.7217 0.0892 0.8470
H 0.2231 -1.3957 0.4527
H -3.4150 -1.8638 -2.6157
H -4.2981 -0.3033 -2.6554
H -4.3280 -2.4446 -0.4528
H -6.3993 -1.1444 -1.9317
H -6.8224 -1.5440 0.8866
H -7.2540 0.0844 2.6846
H -5.7385 2.0081 3.0172
*
