! B3LYP 6-31G* SP

* xyz 0 1
O 7.3114 -1.5852 -1.3311
C 6.3840 -2.3977 -1.0658
O 6.5585 -3.7491 -1.3544
C 5.1230 -1.9223 -0.4550
C 4.0902 -2.8300 -0.1601
C 2.8963 -2.3830 0.4139
C 2.7194 -1.0251 0.7068
S 1.2037 -0.4544 1.3936
O 0.5322 -1.5551 2.1666
O 1.4791 0.6837 2.3375
N 0.1655 0.0777 0.1103
C -0.4691 -0.8980 -0.7781
C -1.9610 -0.8835 -0.5856
C -2.7660 -0.0428 -1.3688
C -4.1450 0.0066 -1.1563
C -4.7312 -0.7750 -0.1572
C -3.9343 -1.6147 0.6454
O -4.4673 -2.4171 1.6674
C -5.8468 -2.4943 2.0197
F -6.5896 -2.9429 0.9422
F -5.9933 -3.3868 3.0640
F -6.3055 -1.2537 2.4256
C -2.5515 -1.6572 0.4258
C -0.0690 1.4790 -0.0637
N -0.9441 2.1134 0.7613
C -1.2179 3.4387 0.6409
C -0.5804 4.2068 -0.3460
C -0.9177 5.6653 -0.5239
F -1.2584 6.2391 0.6890
F -1.9858 5.7823 -1.3937
F 0.1639 6.3571 -1.0415
C 0.3108 3.5647 -1.2200
C 0.5805 2.2012 -1.0770
Cl 1.7410 1.4348 -2.1527
C 3.7412 -0.1147 0.4108
C 4.9356 -0.5584 -0.1643
H 7.4176 -4.0850 -1.7734
H 4.2019 -3.8853 -0.3759
H 2.1091 -3.0962 0.6239
H -0.0770 -1.9179 -0.5737
H -0.2137 -0.6684 -1.8345
H -2.3247 0.5791 -2.1381
H -4.7611 0.6559 -1.7648
H -5.8009 -0.7136 -0.0169
H -1.9365 -2.2960 1.0478
H -1.9358 3.8894 1.3136
H 0.7985 4.1213 -2.0108
H 3.6105 0.9404 0.6173
H 5.7096 0.1665 -0.3845
*
