! B3LYP 6-31G* SP

* xyz 0 1
O -4.1063 6.4056 -2.7658
C -3.3131 6.5707 -1.8001
O -2.9226 7.8609 -1.4514
C -2.8025 5.4071 -1.0432
C -1.8940 5.5912 0.0141
C -1.4108 4.4937 0.7327
C -1.8323 3.1978 0.4088
S -1.2259 1.8064 1.2981
O -2.3857 0.9533 1.7310
O -0.4763 2.2458 2.5251
N -0.1637 0.8932 0.2734
C 1.1157 1.4666 -0.1476
C 2.2435 0.5722 0.2868
C 2.7741 0.6837 1.5799
C 3.7426 -0.2202 2.0245
C 4.1937 -1.2490 1.1902
O 5.1565 -2.1379 1.6952
C 5.7376 -3.2205 0.9711
F 6.4074 -2.7425 -0.1420
F 4.7597 -4.1194 0.5833
F 6.6412 -3.8711 1.7885
C 3.6657 -1.3568 -0.1114
C 2.6942 -0.4552 -0.5550
C -0.6477 -0.3050 -0.3490
N -1.0651 -0.2139 -1.6338
C -1.5254 -1.2721 -2.3282
C -1.5921 -2.5276 -1.7315
C -2.0807 -3.6052 -2.4879
C -2.1684 -4.8740 -1.9310
C -1.7748 -5.0779 -0.6163
C -1.2857 -4.0185 0.1520
C -1.1687 -2.7032 -0.3784
C -0.6631 -1.5521 0.3427
C -0.0888 -1.4974 1.7795
C 0.6929 -2.6746 2.3271
C -0.7036 -2.3412 2.8773
C -2.7315 3.0066 -0.6466
C -3.2145 4.1018 -1.3685
H -3.2660 8.6646 -1.9625
H -1.5535 6.5821 0.2856
H -0.7075 4.6581 1.5389
H 1.2510 2.4785 0.2923
H 1.1233 1.5948 -1.2521
H 2.4192 1.4540 2.2524
H 4.1370 -0.1284 3.0289
H 3.9866 -2.1394 -0.7838
H 2.2776 -0.5716 -1.5486
H -1.8419 -1.1252 -3.3538
H -2.3967 -3.4641 -3.5151
H -2.5450 -5.7009 -2.5193
H -1.8492 -6.0685 -0.1845
H -1.0231 -4.2974 1.1485
H 0.2950 -0.5351 2.1706
H 0.8559 -3.4873 1.5986
H 1.5298 -2.3598 2.9873
H -0.6955 -1.8263 3.8622
H -1.6113 -2.8838 2.5609
H -3.0572 2.0084 -0.9115
H -3.9104 3.9258 -2.1798
*
