! B3LYP 6-31G* SP

* xyz 0 1
C -5.5621 1.9105 -0.5258
C -4.1652 1.4007 -0.2082
O -4.1463 -0.0030 -0.3174
N -2.8759 -0.4015 -0.0323
C -2.5748 -0.8365 1.3316
C -1.9666 -0.6406 -1.1241
O -2.4362 -0.7735 -2.2863
C -0.5010 -0.7203 -0.9379
S 0.3939 -0.0074 0.2975
C 1.8832 -0.5071 -0.3155
C 3.2063 -0.2320 0.2901
C 3.3166 0.4986 1.4885
C 4.5719 0.7514 2.0504
C 5.7282 0.2796 1.4254
C 5.6321 -0.4466 0.2362
F 6.7553 -0.9043 -0.3698
C 4.3789 -0.7023 -0.3301
N 1.7175 -1.2023 -1.4642
C 0.4072 -1.3156 -1.8134
O 0.0163 -1.9874 -2.9673
H -5.5858 3.0175 -0.4418
H -6.2954 1.4790 0.1882
H -5.8460 1.6213 -1.5599
H -3.8999 1.7154 0.8266
H -3.4490 1.8588 -0.9279
H -3.5132 -0.9219 1.9194
H -1.9270 -0.0907 1.8342
H -2.0789 -1.8304 1.3191
H 2.4375 0.8757 1.9942
H 4.6479 1.3139 2.9720
H 6.6980 0.4774 1.8635
H 4.3276 -1.2674 -1.2524
H 0.7047 -2.4089 -3.5791
*
