! B3LYP 6-31G* SP

* xyz 0 1
C 0.7901 0.1256 3.7818
O 1.6014 0.5287 2.6856
C 1.2562 0.3595 1.3353
C 0.0466 -0.2478 0.9454
C -0.2720 -0.3967 -0.4136
C -1.5675 -1.0518 -0.8292
N -2.7379 -0.3279 -0.2996
C -3.5470 -0.9727 0.7500
C -4.2821 -2.1864 0.2414
N -4.5498 -2.3802 -1.1505
O -4.7045 -3.0339 1.0732
C -3.0182 1.0172 -0.7641
O -2.0991 1.6889 -1.3049
C -4.3384 1.6646 -0.6183
C -5.5905 1.0633 -0.7040
C -6.6502 1.9715 -0.5996
C -6.2456 3.2900 -0.4508
S -4.5670 3.3239 -0.4541
C 0.6363 0.0515 -1.3846
C 1.8398 0.6475 -1.0049
C 2.1584 0.8065 0.3561
O 3.3584 1.4030 0.7801
C 4.4690 1.7152 -0.0582
C 5.1355 0.4561 -0.5434
C 5.3547 0.2414 -1.9158
C 5.9732 -0.9338 -2.3550
C 6.3859 -1.8962 -1.4282
F 6.9850 -3.0352 -1.8561
C 6.1779 -1.6855 -0.0615
C 5.5592 -0.5124 0.3811
H 0.6235 -0.9718 3.7492
H 1.3090 0.3770 4.7321
H -0.1802 0.6622 3.7538
H -0.6463 -0.6080 1.6915
H -1.5557 -2.1006 -0.4609
H -1.6508 -1.1080 -1.9364
H -2.8810 -1.2875 1.5806
H -4.2737 -0.2658 1.1985
H -4.2515 -1.6845 -1.8711
H -5.0754 -3.2256 -1.4655
H -5.7474 0.0080 -0.8627
H -7.6895 1.6745 -0.6487
H -6.8986 4.1470 -0.3665
H 0.4120 -0.0548 -2.4404
H 2.5107 0.9875 -1.7810
H 5.2052 2.2947 0.5374
H 4.1453 2.3674 -0.8966
H 5.0436 0.9786 -2.6447
H 6.1349 -1.0959 -3.4142
H 6.4999 -2.4291 0.6563
H 5.4081 -0.3591 1.4438
*
