! B3LYP 6-31G* SP

* xyz 0 1
C 6.1014 0.3110 2.7582
N 5.1486 0.2012 1.6606
C 4.0026 -0.6597 1.7423
O 3.8819 -1.4440 2.7240
C 2.9633 -0.6512 0.6868
C 2.1791 -1.7963 0.4617
C 1.1869 -1.7929 -0.5217
C 0.9443 -0.6400 -1.2782
S -0.3584 -0.6119 -2.4628
O -0.0383 0.3703 -3.5542
O -0.5009 -1.9725 -3.0858
N -1.8483 -0.1517 -1.6949
C -2.8489 -1.1669 -1.3524
C -2.3292 -2.0851 -0.2783
C -2.1933 -3.4623 -0.5193
C -1.6951 -4.3069 0.4771
C -1.3332 -3.7851 1.7223
C -1.4750 -2.4187 1.9736
C -1.9776 -1.5713 0.9800
C -2.0106 1.2022 -1.2527
N -1.1348 1.7191 -0.3503
C -1.2422 2.9894 0.1167
C -2.2898 3.8159 -0.3152
C -2.3929 5.2401 0.1673
F -1.6293 6.0534 -0.6489
F -3.7058 5.6743 0.1371
F -1.9321 5.3481 1.4674
C -3.1829 3.3146 -1.2751
C -3.0519 2.0056 -1.7447
Cl -4.1620 1.4233 -2.9801
C 1.7188 0.5047 -1.0558
C 2.7207 0.5012 -0.0814
H 6.9334 0.9873 2.4703
H 5.5940 0.7225 3.6557
H 6.5253 -0.6888 2.9903
H 5.3457 0.7314 0.7821
H 2.3357 -2.6964 1.0422
H 0.6013 -2.6867 -0.6842
H -3.1176 -1.7338 -2.2706
H -3.7820 -0.6885 -0.9823
H -2.4636 -3.8807 -1.4776
H -1.5888 -5.3659 0.2842
H -0.9444 -4.4400 2.4932
H -1.1961 -2.0149 2.9392
H -2.0866 -0.5155 1.1910
H -0.5099 3.3514 0.8262
H -3.9745 3.9406 -1.6660
H 1.5360 1.4082 -1.6233
H 3.2771 1.4119 0.0911
*
