! B3LYP 6-31G* SP

* xyz 0 1
C -0.5984 1.0824 -2.7798
C -1.6537 0.4801 -1.8503
C -1.6024 0.9808 -0.3840
C -2.0246 2.4302 -0.1333
C -1.9269 2.9457 1.1754
C -2.3361 4.2497 1.4652
C -2.8702 5.0543 0.4595
F -3.2647 6.3187 0.7422
C -3.0093 4.5507 -0.8339
C -2.6030 3.2462 -1.1301
N -0.2935 0.6480 0.2397
C -0.2507 -0.3496 1.3325
C -0.9387 -1.6432 0.9587
C -0.2993 -2.5793 0.1354
C -0.9522 -3.7581 -0.2306
C -2.2466 -4.0171 0.2208
C -2.8983 -3.1018 1.0591
C -4.2668 -3.3797 1.5433
O -4.8436 -2.5727 2.3205
O -4.9318 -4.5361 1.1460
C -2.2337 -1.9171 1.4267
C 0.8743 1.4785 0.0020
O 0.7396 2.6798 -0.3507
C 2.2445 0.9566 0.1558
C 3.1869 1.6607 0.9202
N 4.4501 1.1806 1.0644
C 4.8495 0.0258 0.4639
C 6.1583 -0.4384 0.6348
C 6.5652 -1.6232 0.0154
C 5.6650 -2.3505 -0.7696
C 4.3537 -1.8988 -0.9429
C 3.9399 -0.7070 -0.3299
C 2.6359 -0.2229 -0.4876
H 0.3997 0.6711 -2.5440
H -0.8343 0.8122 -3.8292
H -0.5664 2.1851 -2.7058
H -1.5133 -0.6213 -1.8486
H -2.6643 0.6543 -2.2745
H -2.3999 0.4031 0.1245
H -1.5297 2.3388 1.9774
H -2.2421 4.6341 2.4728
H -3.4407 5.1686 -1.6102
H -2.7507 2.8952 -2.1391
H 0.7925 -0.5868 1.6273
H -0.7259 0.0872 2.2365
H 0.7055 -2.4063 -0.2168
H -0.4558 -4.4735 -0.8676
H -2.7319 -4.9372 -0.0806
H -5.8682 -4.7339 1.4701
H -2.7288 -1.1951 2.0630
H 2.9104 2.5780 1.4224
H 6.8594 0.1180 1.2434
H 7.5788 -1.9786 0.1449
H 5.9852 -3.2664 -1.2488
H 3.6658 -2.4759 -1.5494
H 1.9362 -0.7443 -1.1264
*
