! B3LYP 6-31G* SP

* xyz 0 1
C 5.6287 0.9491 1.5244
C 5.0136 0.0069 0.4619
C 5.3325 0.5621 -0.9481
C 3.4779 -0.0281 0.6523
C 2.7601 -1.2140 0.9411
C 1.3713 -1.1968 1.0936
C 0.6562 -0.0013 0.9665
C -0.8441 -0.0050 1.0521
N -1.4104 -0.4387 -0.2256
C -1.6613 -1.8310 -0.4584
N -2.5910 -2.4727 0.2996
C -2.8709 -3.7927 0.1384
C -2.2025 -4.5438 -0.8413
C -2.4630 -6.0204 -1.0010
F -3.7373 -6.3467 -0.5718
F -1.5421 -6.7287 -0.2528
F -2.3454 -6.3899 -2.3301
C -1.2100 -3.9108 -1.6053
C -0.9360 -2.5523 -1.4233
Cl 0.3580 -1.8098 -2.3558
S -1.8021 0.7356 -1.4461
O -0.5360 1.3343 -1.9919
O -2.5447 0.0762 -2.5758
C -2.8262 1.9897 -0.7564
C -4.1656 1.7098 -0.4618
C -4.9844 2.6950 0.0976
C -4.4728 3.9770 0.3699
C -5.3371 5.0268 0.9531
O -6.5408 4.7790 1.2360
O -4.8276 6.2999 1.1971
C -3.1244 4.2486 0.0785
C -2.3067 3.2605 -0.4779
C 1.3469 1.1810 0.6809
C 2.7350 1.1700 0.5324
C 5.7002 -1.3895 0.5968
F 5.2123 -2.2705 -0.3554
F 5.4919 -1.9206 1.8597
F 7.0691 -1.2814 0.4084
H 5.2537 1.9890 1.4165
H 6.7351 0.9903 1.4287
H 5.3787 0.5970 2.5490
H 4.9803 1.6078 -1.0680
H 6.4272 0.5674 -1.1390
H 4.8441 -0.0580 -1.7304
H 3.2455 -2.1705 1.0466
H 0.8502 -2.1242 1.2984
H -1.1773 -0.6799 1.8711
H -1.2181 1.0084 1.3119
H -3.6124 -4.2532 0.7787
H -0.6398 -4.4751 -2.3337
H -4.5744 0.7268 -0.6606
H -6.0181 2.4539 0.3124
H -5.4112 7.0276 1.5927
H -2.7002 5.2241 0.2775
H -1.2680 3.4879 -0.6853
H 0.8097 2.1143 0.5646
H 3.2238 2.1093 0.3149
*
