! B3LYP 6-31G* SP

* xyz 0 1
C -1.0821 -2.8724 1.9124
C -2.1467 -2.7668 0.8429
C -2.1651 -1.6699 -0.0517
N -1.2283 -0.5917 0.0688
C -0.4027 -0.2366 -1.0896
C 1.0143 0.0357 -0.6660
C 1.8150 -1.0105 -0.1863
C 3.1098 -0.7548 0.2725
C 3.6205 0.5542 0.2746
C 5.0293 0.8179 0.7637
F 5.2605 0.0682 1.9046
F 5.1831 2.1535 1.1043
C 6.0575 0.4087 -0.3117
C 7.5002 0.7827 0.0299
C 7.5514 1.6906 -1.1934
C 6.1120 1.3259 -1.5345
C 2.8246 1.5960 -0.2360
C 1.5314 1.3384 -0.6987
S -1.4720 0.5747 1.3385
O -2.4191 0.0272 2.3703
O -0.1622 0.8718 2.0139
C -2.1682 2.0410 0.6596
C -3.4927 2.0320 0.2096
C -4.0559 3.1833 -0.3482
C -3.2990 4.3613 -0.4672
C -3.8974 5.5756 -1.0642
O -3.2394 6.6507 -1.1243
O -5.1891 5.5391 -1.5798
C -1.9620 4.3608 -0.0245
C -1.4019 3.2085 0.5359
N -3.0880 -1.6196 -1.0485
C -4.0268 -2.5801 -1.2224
C -4.0803 -3.6747 -0.3557
C -5.0584 -4.6672 -0.5288
C -5.1177 -5.7540 0.3428
C -4.2053 -5.8581 1.3928
C -3.2243 -4.8781 1.5752
C -3.1389 -3.7730 0.6993
H -0.2944 -2.0995 1.8169
H -0.5730 -3.8554 1.8413
H -1.5497 -2.7680 2.9136
H -0.8469 0.6441 -1.6016
H -0.3916 -1.0705 -1.8266
H 1.4325 -2.0238 -0.1607
H 3.7117 -1.5786 0.6356
H 5.9713 -0.6638 -0.5999
H 8.1939 -0.0820 -0.0557
H 7.6159 1.3468 0.9819
H 7.6641 2.7630 -0.9214
H 8.2767 1.3345 -1.9579
H 6.0338 0.7589 -2.4888
H 5.4296 2.2027 -1.4826
H 3.1991 2.6112 -0.2756
H 0.9328 2.1570 -1.0773
H -4.0864 1.1306 0.2841
H -5.0831 3.1493 -0.6870
H -5.6166 6.3694 -1.9752
H -1.3472 5.2493 -0.1162
H -0.3686 3.2269 0.8632
H -4.7347 -2.4828 -2.0361
H -5.7771 -4.5997 -1.3369
H -5.8750 -6.5156 0.2045
H -4.2576 -6.7006 2.0702
H -2.5453 -4.9941 2.4082
*
