! B3LYP 6-31G* SP

* xyz 0 1
C 0.3770 2.4865 -1.5503
C 1.3592 1.5465 -0.8831
C 0.8975 0.4385 -0.1442
N -0.4948 0.1040 -0.0799
C -1.1788 0.0772 1.2133
C -2.0532 1.2913 1.3567
C -3.4483 1.1825 1.2520
C -4.2571 2.3156 1.3805
C -3.6773 3.5802 1.6054
O -4.4396 4.7503 1.7510
C -5.8656 4.8057 1.7791
F -6.3518 4.0265 2.8130
F -6.2593 6.1125 1.9847
F -6.3852 4.3697 0.5727
C -2.2834 3.6860 1.6899
C -1.4756 2.5519 1.5703
S -1.2599 -0.6197 -1.4620
O -2.6170 -0.0023 -1.6570
O -0.4416 -0.3737 -2.6993
C -1.3942 -2.3554 -1.2051
C -0.2356 -3.1165 -1.0123
C -0.3239 -4.4949 -0.7990
C -1.5767 -5.1336 -0.7802
C -1.6755 -6.5944 -0.5643
O -0.6350 -7.2867 -0.3962
O -2.9196 -7.2199 -0.5472
C -2.7368 -4.3630 -0.9725
C -2.6453 -2.9832 -1.1802
N 1.7796 -0.3527 0.5117
C 3.1232 -0.1661 0.4894
C 3.9521 -1.1604 1.2774
C 4.6113 -2.1902 0.3531
O 4.9040 -0.4988 2.0705
C 3.6591 0.8928 -0.2922
C 5.0504 1.1170 -0.4133
C 5.5418 2.1654 -1.1903
C 4.6645 3.0081 -1.8627
C 3.2877 2.8104 -1.7641
C 2.7593 1.7579 -0.9817
H 0.5860 3.5322 -1.2449
H 0.4644 2.3967 -2.6514
H -0.6724 2.2819 -1.2690
H -0.4430 0.0540 2.0470
H -1.7795 -0.8538 1.3010
H -3.9107 0.2198 1.0742
H -5.3283 2.1947 1.3030
H -1.8242 4.6531 1.8563
H -0.3991 2.6559 1.6405
H 0.7374 -2.6425 -1.0268
H 0.5881 -5.0597 -0.6501
H -2.9981 -8.2204 -0.4045
H -3.7156 -4.8247 -0.9627
H -3.5513 -2.4097 -1.3202
H 3.2632 -1.7205 1.9541
H 3.8321 -2.7253 -0.2306
H 5.3189 -1.7146 -0.3542
H 5.1669 -2.9376 0.9582
H 5.2374 -1.1601 2.7308
H 5.7794 0.4917 0.0770
H 6.6106 2.3227 -1.2737
H 5.0531 3.8166 -2.4702
H 2.6490 3.4846 -2.3176
*
