! B3LYP 6-31G* SP

* xyz 0 1
C 6.2325 -0.4869 -1.8677
C 6.4520 0.1118 -0.4788
C 5.6620 1.4130 -0.2515
C 4.1330 1.2667 -0.3491
C 3.5520 0.3303 0.7195
C 2.0472 0.3521 0.6783
C 1.3323 1.2853 1.4399
C -0.0676 1.3326 1.3814
O -0.7476 2.3272 2.0845
C -0.7756 0.3973 0.5910
C -0.0403 -0.4438 -0.2743
C 1.3539 -0.4905 -0.1990
O -0.6861 -1.2256 -1.2390
C -2.0608 -1.0524 -1.5891
C -2.1741 0.1178 -2.5881
C -2.5180 -2.3481 -2.2831
C -2.8589 -0.8071 -0.2745
C -4.3762 -0.5912 -0.4475
C -5.0817 -0.5601 0.9227
C -4.2574 0.0401 2.0527
C -4.8740 0.1269 3.4218
C -2.9604 0.3853 1.8950
C -2.3001 0.3948 0.5286
H 5.2035 -0.8921 -1.9609
H 6.4042 0.2790 -2.6536
H 6.9461 -1.3227 -2.0261
H 7.5337 0.3421 -0.3675
H 6.2004 -0.6403 0.2979
H 5.9224 1.8152 0.7518
H 5.9928 2.1678 -0.9980
H 3.8436 0.9146 -1.3622
H 3.6891 2.2782 -0.2178
H 3.9058 0.6414 1.7270
H 3.9041 -0.7093 0.5483
H 1.8653 1.9908 2.0658
H -0.2575 3.0117 2.6484
H 1.8990 -1.1633 -0.8501
H -1.5581 -0.0925 -3.4887
H -1.7999 1.0637 -2.1460
H -3.2241 0.2641 -2.9169
H -1.8220 -2.6014 -3.1116
H -3.5339 -2.2424 -2.7173
H -2.5176 -3.1969 -1.5663
H -2.7198 -1.7240 0.3469
H -4.5689 0.3689 -0.9737
H -4.8283 -1.4039 -1.0519
H -6.0362 0.0006 0.8267
H -5.3347 -1.6042 1.2089
H -4.2994 -0.5000 4.1362
H -4.8654 1.1811 3.7708
H -5.9255 -0.2305 3.4073
H -2.4010 0.6965 2.7709
H -2.6036 1.3405 0.0282
*
