! B3LYP 6-31G* SP

* xyz 0 1
C 5.6253 0.7581 -0.0219
C 5.0538 -0.6146 0.3076
N 3.6691 -0.7021 -0.1376
N 3.2957 -1.1018 -1.3405
N 1.9795 -1.0041 -1.4318
C 1.5791 -0.5200 -0.2371
C 0.1706 -0.2464 0.1000
S -1.1072 -0.5095 -0.9641
C -2.2836 0.0187 0.1184
C -3.7341 0.0761 -0.1365
C -4.2876 -0.3242 -1.3636
N -5.6324 -0.2513 -1.5471
C -6.4549 0.2019 -0.5658
C -5.9101 0.6007 0.6550
N -4.5662 0.5289 0.8412
N -1.7260 0.3976 1.2895
C -0.3729 0.2563 1.2924
O 0.3649 0.6012 2.4237
N 2.6289 -0.3190 0.5819
H 5.0376 1.5492 0.4905
H 5.5935 0.9314 -1.1186
H 6.6800 0.8157 0.3204
H 5.1049 -0.7845 1.4048
H 5.6592 -1.3995 -0.1952
H -3.6646 -0.6904 -2.1683
H -7.5225 0.2519 -0.7327
H -6.5490 0.9644 1.4484
H 1.3690 0.5155 2.4789
*
