! B3LYP def2-TZVP SP


* xyz 0 1
O 2.8397 -0.5742 -1.2070
C 2.6407 -0.0320 -0.0854
N 3.7348 0.5390 0.6476
C 5.1148 0.3630 0.2825
C 5.5847 -0.8915 -0.1488
C 6.9316 -1.0695 -0.4753
C 7.8250 -0.0027 -0.3662
C 7.3746 1.2435 0.0745
C 6.0270 1.4317 0.4052
Br 5.4642 3.1725 0.9772
N 1.3120 0.0448 0.4490
C 0.1534 -0.4986 -0.2690
C -0.1768 0.3290 -1.5136
C -1.6921 0.2690 -1.6512
N -2.1903 -0.1245 -0.3434
C -3.5937 -0.1453 -0.0180
C -4.0397 -0.4384 1.2813
C -5.4083 -0.4470 1.5550
C -6.3337 -0.1449 0.5450
C -7.8156 -0.2003 0.8157
F -8.2718 -1.4855 0.5904
F -8.0856 0.1510 2.1271
F -8.4967 0.6725 -0.0153
C -5.8490 0.1190 -0.7452
N -4.5119 0.1196 -0.9886
C -1.1213 -0.4756 0.5785
H 3.5067 1.1592 1.4563
H 4.9149 -1.7392 -0.2108
H 7.2844 -2.0379 -0.8058
H 8.8681 -0.1427 -0.6189
H 8.0745 2.0651 0.1576
H 1.1905 0.4604 1.4001
H 0.3602 -1.5502 -0.5714
H 0.3259 -0.0789 -2.4172
H 0.1366 1.3867 -1.3662
H -2.0966 1.2638 -1.9393
H -1.9858 -0.4926 -2.4059
H -3.3437 -0.6597 2.0791
H -5.7431 -0.6901 2.5556
H -6.5311 0.3224 -1.5603
H -1.3025 -1.4795 1.0203
H -1.0750 0.2889 1.3840
*
