! B3LYP 6-31G* SP

* xyz 0 1
C 5.5685 1.2709 -0.6585
C 5.1648 0.2005 0.3469
N 3.9664 -0.4912 -0.1100
N 3.9721 -1.5590 -0.8884
N 2.7215 -1.8942 -1.1602
C 1.9648 -0.9789 -0.5210
C 0.4918 -0.9314 -0.5326
S -0.4045 0.2496 0.2657
C -1.8891 -0.3780 -0.2148
C -3.2073 0.2069 0.1046
C -4.1135 0.5239 -0.9330
Cl -3.7059 0.2857 -2.6304
C -5.3601 1.0818 -0.6289
C -5.7193 1.3258 0.6962
C -4.8365 1.0108 1.7286
C -3.5851 0.4520 1.4452
Cl -2.5542 0.0125 2.8042
N -1.7272 -1.4722 -0.9904
C -0.4170 -1.7911 -1.1694
O -0.0645 -2.8985 -1.9389
N 2.7325 -0.0873 0.1365
H 5.7810 0.8070 -1.6451
H 4.7515 2.0147 -0.7727
H 6.4818 1.7924 -0.3026
H 5.9952 -0.5286 0.4668
H 4.9704 0.6727 1.3341
H -6.0520 1.3332 -1.4229
H -6.6856 1.7572 0.9238
H -5.1310 1.1933 2.7544
H 0.8909 -3.1806 -2.1002
*
