! B3LYP def2-TZVP SP

* xyz 0 1
O -2.5940 -1.0568 -1.8108
C -2.0089 -0.6908 -0.7544
N -2.7786 -0.3828 0.4188
C -4.1742 -0.0368 0.3943
C -4.9786 -0.3398 1.5019
C -6.3331 0.0055 1.5118
C -6.9099 0.6579 0.4091
C -8.3585 1.0756 0.4406
F -8.4572 2.3342 1.0037
F -9.1074 0.1856 1.1909
F -8.8845 1.1115 -0.8393
C -6.0925 1.0050 -0.6799
C -4.7382 0.6585 -0.6894
N -0.5697 -0.6455 -0.7128
C 0.2098 -1.4102 -1.6944
C 1.5145 -1.9194 -1.0677
C 2.3224 -0.7993 -0.3736
C 1.4058 -0.0781 0.6482
C 0.1068 0.4345 0.0174
C 2.9320 0.1675 -1.4262
C 3.9095 1.1824 -0.7990
O 4.6481 1.8020 -1.8210
C 4.8552 0.5217 0.1801
C 6.0077 1.1989 0.6151
C 6.8752 0.6002 1.5318
C 6.5953 -0.6721 2.0338
C 5.4384 -1.3465 1.6318
Br 5.0629 -3.0782 2.3528
C 4.5571 -0.7471 0.7203
O 3.3903 -1.4227 0.3439
H -2.3225 -0.5241 1.3484
H -4.5551 -0.8485 2.3589
H -6.9286 -0.2345 2.3837
H -6.4988 1.5535 -1.5206
H -4.1288 0.9602 -1.5309
H 0.4248 -0.7724 -2.5778
H -0.3672 -2.2930 -2.0472
H 1.2592 -2.7001 -0.3168
H 2.1319 -2.4111 -1.8509
H 1.9367 0.7632 1.1394
H 1.1378 -0.7952 1.4557
H 0.3195 1.2736 -0.6776
H -0.5356 0.8413 0.8257
H 2.1428 0.7196 -1.9766
H 3.4918 -0.4333 -2.1776
H 3.3328 1.9561 -0.2428
H 4.0376 2.4461 -2.2667
H 6.2369 2.1893 0.2419
H 7.7656 1.1241 1.8545
H 7.2735 -1.1299 2.7424
*
