! B3LYP 6-31G* SP

* xyz 0 1
O 1.0285 0.1923 2.3288
C 1.4836 -0.0314 1.1736
N 0.6454 -0.6617 0.1903
C -0.8002 -0.8169 0.3898
C -1.5029 0.5249 0.2859
C -1.1017 1.4863 -0.6601
C -1.7769 2.7053 -0.7629
C -2.8870 2.9758 0.0554
C -3.6036 4.3007 -0.0193
F -3.3764 4.9247 -1.2338
F -3.1531 5.1209 0.9985
F -4.9678 4.1132 0.1224
C -3.2819 2.0196 1.0051
C -2.6055 0.8012 1.1099
C -1.3636 -1.8097 -0.6143
N -1.7572 -1.3405 -1.8336
C -2.2505 -2.1467 -2.8065
C -2.3654 -3.5137 -2.5835
C -1.9540 -4.0434 -1.3626
C -1.4224 -3.2093 -0.3595
C -0.9732 -3.8145 0.9579
F 0.3035 -3.3845 1.2715
F -1.8461 -3.4368 1.9623
F -0.9491 -5.1981 0.9029
C 2.8796 0.3517 0.8568
C 3.8305 0.4632 1.8881
C 5.1475 0.8327 1.6007
C 5.5304 1.1061 0.2811
O 6.8399 1.4749 -0.0173
C 4.5889 1.0111 -0.7473
C 3.2714 0.6387 -0.4642
H 1.0735 -1.0104 -0.6974
H -0.9681 -1.2028 1.4164
H -0.2636 1.2946 -1.3181
H -1.4302 3.4341 -1.4846
H -4.1167 2.2160 1.6666
H -2.9417 0.0731 1.8383
H -2.5556 -1.7230 -3.7538
H -2.7657 -4.1608 -3.3535
H -2.0504 -5.1106 -1.2108
H 3.5577 0.2536 2.9156
H 5.8694 0.9062 2.4042
H 7.5436 1.5594 0.7064
H 4.8775 1.2313 -1.7672
H 2.5595 0.6032 -1.2779
*
