! B3LYP 6-31G* SP

* xyz 0 1
C -5.9942 0.2441 0.8609
C -5.4717 -0.7479 -0.1698
N -4.1101 -0.4007 -0.5556
N -3.8012 0.4234 -1.5421
N -2.4864 0.5649 -1.5847
C -2.0219 -0.2016 -0.5766
C -0.5997 -0.3451 -0.2400
S 0.6688 0.4067 -1.0481
C 1.8574 -0.2739 -0.0600
C 3.3163 -0.0501 -0.1819
C 4.2046 -0.6800 0.7093
C 5.5833 -0.4738 0.6009
C 6.0915 0.3624 -0.3970
Cl 7.8215 0.6195 -0.5310
C 5.2189 0.9933 -1.2878
C 3.8394 0.7900 -1.1831
N 1.3013 -1.0706 0.8830
C -0.0549 -1.1119 0.7861
O -0.8279 -1.8713 1.6585
N -3.0273 -0.8085 0.0835
H -5.3530 0.2255 1.7678
H -5.9966 1.2703 0.4359
H -7.0315 -0.0277 1.1489
H -6.1297 -0.7342 -1.0654
H -5.4886 -1.7729 0.2595
H 3.8351 -1.3322 1.4907
H 6.2551 -0.9648 1.2934
H 5.6080 1.6419 -2.0624
H 3.1875 1.2913 -1.8863
H -0.3940 -2.4166 2.3935
*
