! B3LYP 6-31G* SP

* xyz 0 1
C -1.2502 -2.7683 1.3362
C -0.2635 -3.0105 0.2154
C 0.2894 -1.9256 -0.5076
N -0.0265 -0.5664 -0.1776
C -0.5914 0.3013 -1.2140
C -1.7358 1.1010 -0.6692
S -3.1522 0.4163 -0.0455
C -3.8796 1.8839 0.3196
C -5.1311 2.1015 0.8906
C -5.5414 3.4256 1.1048
C -4.6994 4.4971 0.7488
C -3.4417 4.2547 0.1694
C -3.0368 2.9285 -0.0364
C -1.8252 2.4967 -0.5995
Cl -0.5787 3.5934 -1.1844
S 0.7108 0.1430 1.2310
O -0.3530 0.7673 2.0908
O 1.4149 -0.9154 2.0338
C 1.8921 1.3468 0.7336
C 2.9523 0.9691 -0.0969
C 3.8915 1.9156 -0.5146
C 3.7815 3.2575 -0.1069
C 4.7699 4.2654 -0.5512
O 5.7327 3.9309 -1.2916
O 4.6462 5.5941 -0.1549
C 2.7154 3.6294 0.7299
C 1.7783 2.6797 1.1482
N 1.1321 -2.1604 -1.5481
C 1.4941 -3.4095 -1.9260
C 1.0028 -4.5211 -1.2380
C 1.3829 -5.8160 -1.6231
C 0.8939 -6.9246 -0.9329
C 0.0258 -6.7511 0.1448
C -0.3620 -5.4678 0.5385
C 0.1166 -4.3295 -0.1483
H -0.7989 -3.0764 2.3030
H -1.5562 -1.7081 1.4224
H -2.1784 -3.3499 1.1526
H -0.9820 -0.3099 -2.0556
H 0.2041 0.9561 -1.6228
H -5.7716 1.2722 1.1593
H -6.5099 3.6253 1.5454
H -5.0273 5.5153 0.9139
H -2.8042 5.0844 -0.1067
H 3.0493 -0.0586 -0.4239
H 4.7006 1.5976 -1.1593
H 5.3181 6.2920 -0.4519
H 2.6026 4.6549 1.0592
H 0.9609 2.9899 1.7861
H 2.1698 -3.5305 -2.7636
H 2.0576 -5.9694 -2.4570
H 1.1900 -7.9210 -1.2329
H -0.3479 -7.6144 0.6796
H -1.0314 -5.3826 1.3836
*
