! B3LYP 6-31G* SP

* xyz 0 1
N -0.8451 -0.0331 3.4206
C -0.8627 1.0733 2.5185
O -0.7160 2.2359 2.9828
C -1.1958 0.8590 1.0553
C -1.0104 2.0728 0.1511
C -1.9019 2.2607 -0.9228
C -1.7348 3.3275 -1.8103
C -0.6739 4.2185 -1.6424
C 0.2216 4.0446 -0.5862
C 0.0594 2.9795 0.3044
N -0.5519 -0.3678 0.5035
C -1.4089 -1.5021 0.2429
O -2.5113 -1.3154 -0.3421
C -1.0251 -2.8843 0.6366
C -1.6858 -3.9886 0.0646
C -1.3406 -5.2922 0.4340
C -0.3380 -5.5101 1.3808
C 0.3200 -4.4246 1.9618
C -0.0211 -3.1191 1.5963
C 0.8382 -0.4461 -0.0226
C 1.9365 0.0832 0.9342
C 2.8881 0.9518 0.0842
C 2.1767 1.0912 -1.2062
N 2.5767 1.8581 -2.2537
C 1.8408 1.8831 -3.4022
C 0.6771 1.1013 -3.5157
C 0.2748 0.3027 -2.4366
C 1.0356 0.3367 -1.2673
H -1.1747 -0.9753 3.1200
H -0.5887 0.1106 4.4225
H -2.2959 0.6938 1.0966
H -2.7204 1.5700 -1.0830
H -2.4240 3.4576 -2.6346
H -0.5420 5.0401 -2.3344
H 1.0503 4.7297 -0.4631
H 0.7842 2.8599 1.0958
H -2.4641 -3.8456 -0.6746
H -1.8513 -6.1343 -0.0149
H -0.0724 -6.5200 1.6657
H 1.0943 -4.5942 2.6989
H 0.4996 -2.2986 2.0698
H 1.0991 -1.4960 -0.2813
H 1.5281 0.6924 1.7584
H 2.4938 -0.7642 1.3896
H 3.0563 1.9462 0.5497
H 3.8574 0.4332 -0.0768
H 2.1604 2.5002 -4.2311
H 0.0991 1.1127 -4.4304
H -0.6114 -0.3144 -2.5063
*
