! B3LYP 6-31G* SP

* xyz 0 1
C 6.0289 -0.1716 1.2261
C 5.5141 0.5503 -0.0122
N 4.0980 0.8588 0.1388
N 3.6301 1.9665 0.6881
N 2.3090 1.9014 0.7224
C 2.0063 0.7043 0.1793
C 0.6378 0.1965 0.0178
S -0.7599 1.0194 0.4627
C -1.7855 -0.2235 -0.0388
C -3.2608 -0.1645 -0.0483
C -3.9388 -0.5765 -1.2092
C -5.3287 -0.4697 -1.2963
C -6.0586 0.0468 -0.2259
C -5.4024 0.4379 0.9427
C -4.0114 0.3166 1.0530
O -3.4213 0.6441 2.2749
N -1.0836 -1.2479 -0.5761
C 0.2574 -1.0238 -0.5347
O 1.1700 -1.9543 -1.0209
N 3.1168 0.0345 -0.1853
H 5.8994 0.4702 2.1234
H 5.4727 -1.1218 1.3729
H 7.1079 -0.4025 1.1025
H 6.0884 1.4903 -0.1599
H 5.6631 -0.0933 -0.9060
H -3.3883 -0.9563 -2.0615
H -5.8392 -0.7783 -2.1995
H -7.1350 0.1344 -0.2973
H -5.9798 0.8149 1.7774
H -2.4597 0.4276 2.4990
H 0.8536 -2.8304 -1.4184
*
