! B3LYP 6-31G* SP

* xyz 0 1
O 0.6081 0.2320 -1.3220
C 1.4190 0.2784 -0.3577
N 0.9806 -0.0760 0.9684
C -0.3360 -0.6486 1.2860
C -1.4535 0.2792 0.8364
C -2.2000 0.0493 -0.3362
C -3.2004 0.9431 -0.7278
C -3.4844 2.0801 0.0462
C -4.5287 3.0698 -0.4050
F -5.5424 2.4294 -1.0967
F -5.0897 3.7181 0.6818
F -3.9400 4.0066 -1.2336
C -2.7138 2.3318 1.1930
C -1.7134 1.4384 1.5852
C -0.4733 -2.0705 0.7763
N 0.3758 -2.5477 -0.1779
C 0.2734 -3.8101 -0.6716
C -0.7272 -4.6637 -0.2051
C -1.6149 -4.2055 0.7687
C -1.4942 -2.9058 1.2653
F -2.3656 -2.4632 2.2070
C 2.8138 0.7110 -0.6102
C 3.1122 1.5270 -1.7130
C 4.4260 1.9289 -1.9549
C 5.4417 1.5044 -1.0959
O 6.6316 1.8617 -1.3052
N 5.1464 0.7026 -0.0357
C 3.8713 0.2993 0.2201
H 1.6062 0.1388 1.7766
H -0.4015 -0.7197 2.3958
H -2.0054 -0.8133 -0.9600
H -3.7485 0.7478 -1.6410
H -2.8813 3.2230 1.7847
H -1.1335 1.6549 2.4742
H 0.9683 -4.1499 -1.4278
H -0.8143 -5.6694 -0.5954
H -2.3969 -4.8571 1.1368
H 2.3285 1.8629 -2.3810
H 4.6507 2.5643 -2.8028
H 5.9137 0.3806 0.5969
H 3.6918 -0.3629 1.0569
*
