! B3LYP 6-31G* SP

* xyz 0 1
O 1.7129 1.3261 2.0321
C 1.9829 0.7884 0.9225
N 1.3910 -0.4764 0.5830
C 0.2409 -1.0146 1.3210
C -0.9969 -0.1823 1.0645
C -1.3081 0.2713 -0.2294
C -2.4711 1.0102 -0.4613
C -3.3531 1.2994 0.5975
O -4.5351 2.0369 0.4188
C -5.0044 2.5531 -0.8258
F -5.2161 1.5187 -1.7206
F -4.0878 3.4497 -1.3483
F -6.2002 3.2117 -0.6156
C -3.0497 0.8335 1.8832
F -3.8935 1.0915 2.9141
C -1.8862 0.0939 2.1150
C -0.0286 -2.4514 0.9313
N -0.1304 -2.7821 -0.3881
C -0.3984 -4.0504 -0.7976
C -0.5886 -5.0628 0.1436
C -0.5060 -4.7552 1.5019
C -0.2309 -3.4464 1.9059
F -0.1680 -3.1571 3.2304
C 2.9173 1.4646 -0.0064
C 3.8682 2.3743 0.4818
C 4.7392 3.0182 -0.3976
C 4.6477 2.7581 -1.7671
O 5.4281 3.3357 -2.5705
N 3.7142 1.8834 -2.2341
C 2.8567 1.2411 -1.3936
H 1.8088 -1.0319 -0.1978
H 0.4943 -0.9735 2.4035
H -0.6503 0.0518 -1.0612
H -2.6738 1.3461 -1.4680
H -1.6802 -0.2665 3.1155
H -0.4658 -4.2718 -1.8545
H -0.8015 -6.0746 -0.1765
H -0.6583 -5.5305 2.2414
H 3.9450 2.5792 1.5433
H 5.4766 3.7142 -0.0166
H 3.6457 1.7007 -3.2626
H 2.1133 0.5757 -1.8141
*
