! B3LYP 6-31G* SP

* xyz 0 1
C -8.1512 -1.1610 1.9643
N -7.1996 -0.6321 0.9672
C -5.9316 -1.1633 0.9036
O -5.5711 -2.0786 1.6960
C -5.0546 -0.6733 -0.0591
C -3.7624 -1.0020 -0.4351
C -2.8370 -2.0307 0.1397
C -1.6985 -1.3559 0.8429
O -1.8698 -0.9291 2.0159
N -0.4364 -1.1937 0.1721
C 0.6656 -0.4214 0.6722
N 1.8698 -0.4061 0.0612
C 2.7610 0.4120 0.6900
C 4.1547 0.5620 0.1994
C 4.9737 1.6261 0.6267
C 6.2879 1.7397 0.1684
F 7.0617 2.7691 0.5958
C 6.8132 0.7864 -0.7154
O 8.1418 0.9046 -1.1391
C 9.1736 0.0204 -0.6951
C 9.6243 0.3756 0.7204
F 10.0025 1.7054 0.7714
F 8.5943 0.1575 1.6225
F 10.7038 -0.4173 1.0735
C 5.9937 -0.2580 -1.1760
Cl 6.5754 -1.4111 -2.3710
C 4.6755 -0.3662 -0.7175
C 2.2514 1.0578 1.8249
S 0.6485 0.5870 2.0176
C -3.4652 -0.1418 -1.4915
O -4.4955 0.6462 -1.7396
C -5.4464 0.3351 -0.8880
N -6.6744 0.9123 -0.8007
C -7.0621 1.9856 -1.7277
C -7.5614 0.4135 0.1300
O -8.7174 0.9162 0.2153
H -8.0552 -2.2676 2.0454
H -7.9481 -0.7009 2.9574
H -9.2075 -0.9610 1.6801
H -2.4554 -2.6699 -0.6819
H -3.3619 -2.7019 0.8458
H -0.2984 -1.6841 -0.7418
H 4.6022 2.3817 1.3127
H 8.8314 -1.0353 -0.7255
H 10.0410 0.1188 -1.3831
H 4.0617 -1.1826 -1.0785
H 2.7823 1.7281 2.4900
H -2.5318 -0.1084 -2.0390
H -7.6530 1.5573 -2.5655
H -6.1721 2.5029 -2.1444
H -7.6730 2.7519 -1.2031
*
