! B3LYP 6-31G* SP

* xyz 0 1
C 0.6337 -1.3394 0.5833
C 1.6843 -1.7314 -0.4311
C 1.6768 -1.1702 -1.7296
N 0.6464 -0.2635 -2.1444
C 0.9794 1.1398 -2.3927
C 1.4214 1.8045 -1.1173
C 2.7759 1.7997 -0.7516
C 3.1857 2.3773 0.4526
C 2.2402 2.9679 1.3140
O 2.5953 3.5772 2.5280
C 3.9184 3.6599 3.0520
F 4.7413 4.3395 2.1736
F 3.8849 4.3455 4.2505
F 4.4166 2.3910 3.2789
C 0.8879 2.9562 0.9519
C 0.4782 2.3747 -0.2504
S -0.8674 -0.9048 -2.7076
O -1.1213 -0.4364 -4.1130
O -0.8073 -2.4077 -2.7182
C -2.1779 -0.3737 -1.6583
C -2.6731 -1.2215 -0.6614
C -3.6858 -0.7867 0.1976
C -4.2399 0.5039 0.0635
C -5.3111 0.9994 1.0427
C -4.6489 1.2970 2.3943
C -6.4291 -0.0484 1.2395
O -5.8969 2.1970 0.5855
C -3.7203 1.3524 -0.9364
C -2.7087 0.9128 -1.7945
N 2.6769 -1.4583 -2.6019
C 3.6917 -2.3000 -2.2930
C 3.7341 -2.9196 -1.0420
C 4.7745 -3.8065 -0.7260
C 4.8092 -4.4313 0.5209
C 3.8096 -4.1769 1.4582
C 2.7719 -3.2907 1.1593
C 2.7178 -2.6434 -0.0946
H -0.0083 -2.2151 0.8180
H -0.0160 -0.5158 0.2304
H 1.1231 -0.9747 1.5122
H 1.7856 1.1995 -3.1556
H 0.1045 1.6804 -2.8118
H 3.5147 1.3456 -1.3999
H 4.2382 2.3582 0.7000
H 0.1504 3.3978 1.6096
H -0.5726 2.3698 -0.5053
H -2.2624 -2.2140 -0.5327
H -4.0141 -1.4544 0.9819
H -5.3975 1.7017 3.1097
H -4.2069 0.3774 2.8324
H -3.8424 2.0511 2.2688
H -6.0671 -0.9378 1.7950
H -6.8270 -0.3798 0.2573
H -7.2660 0.3932 1.8218
H -6.3803 1.9966 -0.2603
H -4.0770 2.3677 -1.0486
H -2.3258 1.5866 -2.5530
H 4.4602 -2.4884 -3.0303
H 5.5582 -4.0174 -1.4437
H 5.6102 -5.1182 0.7604
H 3.8378 -4.6680 2.4221
H 2.0160 -3.1272 1.9144
*
