! B3LYP 6-31G* SP

* xyz 0 1
C -0.6269 -2.3441 -1.9161
O -1.5321 -1.4456 -1.2811
C -1.2054 -0.1429 -0.8729
C 0.0804 0.3984 -1.0642
C 0.3832 1.6957 -0.6263
C 1.7800 2.2401 -0.7757
N 2.6581 1.6772 0.2604
C 2.6957 2.3229 1.5825
C 3.8133 3.3670 1.6594
N 5.1284 2.7377 1.5713
C 3.3850 0.4557 0.0040
N 3.5036 -0.0895 -1.2349
C 4.2182 -1.2430 -1.1985
C 4.4998 -2.0334 -2.3159
C 5.2508 -3.2097 -2.1407
C 5.7061 -3.5806 -0.8594
C 5.4153 -2.7789 0.2576
C 4.6704 -1.6188 0.0565
S 4.1694 -0.4820 1.1848
C -0.6104 2.4571 0.0042
C -1.8925 1.9343 0.1832
C -2.1985 0.6307 -0.2518
O -3.4738 0.0680 -0.0848
C -4.5886 0.7458 0.4903
C -5.7803 -0.1686 0.4822
C -6.1204 -0.8965 1.6364
C -7.2110 -1.7712 1.6201
C -7.9600 -1.9375 0.4500
C -7.6174 -1.2319 -0.7069
C -6.5298 -0.3522 -0.6961
F -6.2046 0.3144 -1.8341
H -1.1447 -3.3069 -2.1079
H -0.2888 -1.9223 -2.8869
H 0.2477 -2.5396 -1.2580
H 0.8506 -0.1860 -1.5451
H 1.7726 3.3499 -0.6999
H 2.1694 2.0139 -1.7910
H 2.8114 1.5732 2.3933
H 1.7299 2.8364 1.7774
H 3.7289 3.8972 2.6343
H 3.6916 4.1202 0.8490
H 5.8413 3.4564 1.8339
H 5.3126 2.5002 0.5694
H 4.1465 -1.7482 -3.2988
H 5.4782 -3.8359 -2.9951
H 6.2848 -4.4873 -0.7360
H 5.7587 -3.0573 1.2462
H -0.3903 3.4558 0.3648
H -2.6362 2.5502 0.6715
H -4.3464 1.0538 1.5315
H -4.8157 1.6619 -0.0976
H -5.5417 -0.7882 2.5472
H -7.4712 -2.3257 2.5133
H -8.8015 -2.6184 0.4377
H -8.1936 -1.3719 -1.6142
*
