! B3LYP def2-TZVP SP

* xyz 0 1
O -6.8439 -3.4236 1.1445
C -6.1181 -3.8244 0.1946
O -6.3716 -5.0672 -0.3791
C -5.0103 -2.9832 -0.3083
C -4.7497 -1.7241 0.2614
C -3.7036 -0.9326 -0.2197
C -2.9041 -1.3845 -1.2754
S -1.5738 -0.3860 -1.8466
O -2.0886 0.9928 -2.1520
O -0.9764 -0.9598 -3.1010
N -0.3563 -0.3103 -0.6127
C 0.3919 -1.5164 -0.2559
C 1.8637 -1.2783 -0.4448
C 2.6458 -0.8022 0.6177
C 3.9984 -0.5090 0.4236
C 4.5870 -0.6802 -0.8448
O 5.9386 -0.3966 -1.0994
C 6.8733 0.0910 -0.1397
F 6.4536 1.3123 0.3558
F 7.0116 -0.8161 0.8954
F 8.0995 0.2562 -0.7541
C 3.7999 -1.1487 -1.9028
C 2.4476 -1.4417 -1.7089
C -0.2958 0.8391 0.2388
N -0.8550 0.7732 1.4753
C -0.8282 1.8178 2.3389
C -0.2054 3.0148 1.9735
C -0.1709 4.0992 2.8627
C 0.4589 5.2879 2.4926
C 1.0562 5.4026 1.2371
C 1.0281 4.3304 0.3419
C 0.3970 3.1213 0.6957
C 0.3512 2.0157 -0.1822
Br 1.1863 2.0617 -1.9185
C -3.1520 -2.6407 -1.8423
C -4.1999 -3.4334 -1.3650
H -7.1286 -5.6501 -0.0437
H -5.3526 -1.3508 1.0789
H -3.5153 0.0323 0.2325
H 0.0697 -2.3750 -0.8850
H 0.1738 -1.7951 0.7982
H 2.2048 -0.6456 1.5949
H 4.5717 -0.1436 1.2632
H 4.2379 -1.2796 -2.8844
H 1.8526 -1.7848 -2.5462
H -1.2928 1.7100 3.3108
H -0.6286 4.0264 3.8418
H 0.4850 6.1217 3.1810
H 1.5434 6.3269 0.9555
H 1.5017 4.4608 -0.6207
H -2.5355 -3.0107 -2.6512
H -4.3721 -4.3999 -1.8218
*
