! B3LYP 6-31G* SP

* xyz 0 1
C -0.0006 2.9843 -0.0086
C -1.4548 2.7232 0.3021
C -1.9559 1.4021 0.5101
N -1.1321 0.2200 0.3648
C -0.5720 -0.0971 -0.9622
C 0.8618 -0.5904 -0.9356
C 1.3560 -1.2502 -2.0689
C 2.7026 -1.6061 -2.1550
C 3.5865 -1.2915 -1.1234
O 4.9353 -1.6443 -1.2589
C 6.0140 -0.9921 -0.6353
C 7.1099 -1.7547 -0.2042
C 8.1913 -1.1403 0.4329
C 8.1927 0.2469 0.6228
C 7.1172 1.0209 0.1659
C 6.0346 0.4079 -0.4671
C 3.0955 -0.6573 0.0262
C 1.7514 -0.2976 0.1121
S -1.3925 -1.1090 1.4736
O -0.0694 -1.6486 1.9412
O -2.1598 -0.6372 2.6787
C -2.3091 -2.3980 0.6925
C -1.8732 -3.7325 0.7591
C -2.6177 -4.7488 0.1457
C -3.8155 -4.4483 -0.5317
C -4.6187 -5.5172 -1.1693
O -4.2332 -6.7214 -1.1305
O -5.8151 -5.2026 -1.8113
C -4.2454 -3.1102 -0.5908
C -3.4981 -2.0969 0.0157
N -3.2611 1.2335 0.8355
C -4.1359 2.2593 0.9649
C -3.7121 3.5716 0.7603
C -4.6127 4.6383 0.9139
C -4.1883 5.9493 0.7208
C -2.8708 6.2054 0.3392
C -1.9666 5.1530 0.1738
C -2.3647 3.8157 0.4053
H 0.6377 2.1039 0.1470
H 0.4021 3.7673 0.6657
H 0.0971 3.3153 -1.0645
H -0.6072 0.7944 -1.6243
H -1.2155 -0.8589 -1.4473
H 0.6999 -1.4688 -2.9024
H 3.0678 -2.1041 -3.0390
H 7.1089 -2.8284 -0.3504
H 9.0288 -1.7404 0.7745
H 9.0225 0.7216 1.1177
H 7.1272 2.0964 0.2974
H 5.2114 1.0133 -0.8260
H 3.7469 -0.4438 0.8609
H 1.4133 0.1992 1.0066
H -0.9612 -3.9918 1.2864
H -2.2586 -5.7705 0.2113
H -6.3910 -5.9306 -2.2281
H -5.1619 -2.8437 -1.0991
H -3.8543 -1.0747 -0.0435
H -5.1601 2.0431 1.2387
H -5.6459 4.4612 1.1859
H -4.8795 6.7705 0.8715
H -2.5437 7.2246 0.1822
H -0.9584 5.4061 -0.1373
*
