! B3LYP 6-31G* SP

* xyz 0 1
C -2.9356 2.9904 1.4051
N -3.2738 1.6835 0.8062
C -2.5757 0.5644 1.1742
O -1.6524 0.6738 2.0263
C -2.8895 -0.6989 0.6154
C -2.1651 -1.9041 0.9196
C -0.9516 -1.9720 1.8346
C 0.2811 -1.3198 1.2589
O 1.2037 -0.9892 2.0544
N 0.4406 -1.1228 -0.1605
C 1.6146 -0.5552 -0.7571
N 2.7551 -0.2787 -0.0853
C 3.7196 0.2359 -0.9003
C 5.0676 0.6058 -0.3865
C 6.1701 0.6949 -1.2624
C 7.4379 1.0334 -0.7795
C 7.6273 1.2884 0.5796
C 6.5503 1.1987 1.4628
F 6.7421 1.4449 2.7837
C 5.2755 0.8586 0.9896
F 4.2474 0.7991 1.8758
C 3.3305 0.3679 -2.2379
S 1.7473 -0.1815 -2.3866
C -2.5512 -3.1112 0.3117
C -3.6181 -3.1584 -0.5695
C -4.3273 -2.0045 -0.8724
C -3.9843 -0.7561 -0.2957
N -4.6962 0.3870 -0.6013
C -5.8469 0.3281 -1.5305
C -4.3372 1.5925 -0.0494
O -4.9977 2.6364 -0.3276
H -1.8650 3.0467 1.6838
H -3.1050 3.8212 0.6930
H -3.5521 3.1545 2.3097
H -1.2006 -1.5343 2.8241
H -0.6864 -3.0283 2.0622
H -0.3384 -1.3777 -0.8100
H 6.0654 0.4857 -2.3191
H 8.2771 1.0925 -1.4605
H 8.6102 1.5557 0.9479
H 3.9206 0.7712 -3.0487
H -2.0179 -4.0331 0.5155
H -3.8962 -4.1011 -1.0271
H -5.1471 -2.1133 -1.5680
H -6.3550 1.3052 -1.6696
H -5.5030 -0.0028 -2.5335
H -6.6147 -0.3735 -1.1404
*
