! B3LYP 6-31G* SP

* xyz -1 1
C 0.4579 -1.4684 -1.9671
C -0.2781 -1.6797 -0.6630
C -0.8224 -0.5818 0.0429
N -0.6338 0.7616 -0.4141
C 0.3741 1.6135 0.2200
C 1.7559 1.1113 -0.0978
C 2.4422 1.4716 -1.2489
C 3.5844 0.7096 -1.2453
C 4.6116 0.6565 -2.1828
C 5.6558 -0.2508 -1.9629
C 5.6550 -1.0755 -0.8203
C 4.6084 -1.0063 0.1191
Cl 4.6840 -2.0640 1.5222
C 3.5655 -0.0858 -0.1228
N 2.4390 0.1540 0.5943
C 2.0208 -0.5154 1.8292
S -1.8272 1.4718 -1.4535
O -1.1402 2.2191 -2.5633
O -2.6877 0.3994 -2.0631
C -2.8329 2.5563 -0.5007
C -3.7324 2.0264 0.4310
C -4.5058 2.8762 1.2264
C -4.3841 4.2725 1.1048
C -5.1924 5.1771 1.9518
O -6.0201 4.7108 2.7788
O -5.0448 6.5561 1.8508
C -3.4789 4.7981 0.1672
C -2.7067 3.9454 -0.6276
N -1.4918 -0.7819 1.2076
C -1.6584 -2.0126 1.7478
C -1.1117 -3.1343 1.1206
C -1.2532 -4.4055 1.6965
C -0.6849 -5.5206 1.0819
C 0.0249 -5.3762 -0.1094
C 0.1656 -4.1170 -0.6990
C -0.4044 -2.9746 -0.0972
H 0.0318 -2.1246 -2.7526
H 0.3818 -0.4290 -2.3410
H 1.5329 -1.7048 -1.8298
H 0.2807 2.6567 -0.1518
H 0.1996 1.6659 1.3124
H 2.1278 2.1759 -2.0066
H 4.6024 1.2908 -3.0597
H 6.4690 -0.3185 -2.6735
H 6.4735 -1.7677 -0.6671
H 1.0560 -0.1313 2.2066
H 1.8979 -1.6026 1.6430
H 2.7773 -0.3449 2.6229
H -3.8320 0.9537 0.5457
H -5.1939 2.4401 1.9399
H -3.3614 5.8682 0.0511
H -2.0082 4.3714 -1.3348
H -2.2022 -2.1090 2.6790
H -1.7963 -4.5349 2.6253
H -0.7911 -6.4982 1.5333
H 0.4702 -6.2433 -0.5781
H 0.7307 -4.0510 -1.6181
*
