! B3LYP 6-31G* SP

* xyz 0 1
C 0.0825 2.8998 -2.7263
C -1.2041 2.1156 -2.4710
C -1.3608 1.5583 -1.0333
C -1.4722 2.6128 0.0471
C -1.9242 3.9158 -0.0998
C -1.9054 4.4688 1.1628
C -1.4539 3.4699 2.0004
C -1.2903 3.5808 3.4784
O -1.2153 2.3774 1.3147
N -0.3269 0.5383 -0.7224
C -0.6328 -0.8587 -1.0936
C -1.7488 -1.4465 -0.2567
C -1.9561 -1.0544 1.0776
C -2.9726 -1.6375 1.8353
C -3.7853 -2.6267 1.2791
C -3.5856 -3.0479 -0.0470
C -4.4405 -4.1004 -0.6400
O -5.3618 -4.6315 0.0374
O -4.2364 -4.5137 -1.9543
C -2.5592 -2.4557 -0.8048
C 0.9948 0.9112 -0.2360
O 1.3092 2.1273 -0.1275
C 2.0251 -0.0854 0.1224
C 1.7915 -1.0523 1.1123
N 2.7616 -1.9452 1.4433
C 3.9827 -1.9309 0.8461
C 4.9558 -2.8682 1.2114
C 6.2132 -2.8458 0.5993
C 6.5027 -1.8881 -0.3784
C 5.5369 -0.9469 -0.7498
C 4.2726 -0.9631 -0.1410
C 3.2842 -0.0356 -0.4920
H 0.2100 3.7126 -1.9822
H 0.0353 3.3600 -3.7357
H 0.9608 2.2226 -2.7059
H -1.2447 1.2725 -3.1933
H -2.0721 2.7671 -2.7084
H -2.3560 1.0614 -1.0278
H -2.2417 4.4080 -1.0088
H -2.1981 5.4732 1.4387
H -0.6728 2.7386 3.8543
H -2.2869 3.5468 3.9650
H -0.7884 4.5375 3.7329
H 0.2514 -1.5199 -1.0134
H -0.9206 -0.8833 -2.1668
H -1.3427 -0.2910 1.5348
H -3.1303 -1.3220 2.8588
H -4.5674 -3.0632 1.8877
H -4.8167 -5.2334 -2.3692
H -2.3871 -2.7762 -1.8254
H 0.8439 -1.0950 1.6274
H 4.7407 -3.6129 1.9679
H 6.9644 -3.5716 0.8828
H 7.4769 -1.8760 -0.8496
H 5.7752 -0.2129 -1.5099
H 3.4862 0.7156 -1.2477
*
