! B3LYP 6-31G* SP

* xyz 0 1
C -1.4276 -0.2959 2.0914
C -0.4769 -1.1962 1.3331
C 0.3835 -0.6672 0.3416
N 0.3781 0.7285 0.0189
C -0.2133 1.1796 -1.2407
C -1.7008 1.0447 -1.1777
C -2.4068 -0.1404 -1.3827
C -3.7710 -0.0073 -1.0940
C -4.7470 -1.0112 -1.1734
Cl -4.3490 -2.6450 -1.6853
C -6.0716 -0.6929 -0.8239
C -6.4070 0.6065 -0.3979
C -5.4223 1.6013 -0.3129
C -4.1177 1.2678 -0.6662
S -2.7534 2.2451 -0.6213
S 1.3175 1.8268 0.9779
O 1.6694 1.1916 2.2945
O 0.5107 3.0660 1.2490
C 2.7960 2.2244 0.1121
C 3.7955 1.2555 -0.0329
C 4.9669 1.5507 -0.7362
C 5.1529 2.8220 -1.3089
C 6.3902 3.1403 -2.0550
O 7.2938 2.2720 -2.1932
O 6.5677 4.4034 -2.6138
C 4.1419 3.7884 -1.1648
C 2.9708 3.4901 -0.4614
N 1.2095 -1.4900 -0.3554
C 1.2588 -2.8260 -0.1379
C 0.4332 -3.4115 0.8249
C 0.4741 -4.7971 1.0438
C -0.3578 -5.3812 1.9993
C -1.2341 -4.5900 2.7413
C -1.2849 -3.2089 2.5343
C -0.4509 -2.5948 1.5736
H -2.4749 -0.6042 1.8881
H -1.2233 -0.3666 3.1802
H -1.3365 0.7705 1.8076
H 0.1864 0.5749 -2.0833
H 0.0491 2.2416 -1.4364
H -1.9384 -1.0653 -1.6945
H -6.8423 -1.4512 -0.8780
H -7.4295 0.8377 -0.1290
H -5.6702 2.5998 0.0233
H 3.6660 0.2698 0.3962
H 5.7252 0.7836 -0.8326
H 7.4110 4.6316 -3.1264
H 4.2532 4.7746 -1.5976
H 2.2020 4.2462 -0.3695
H 1.9401 -3.4298 -0.7243
H 1.1468 -5.4273 0.4745
H -0.3241 -6.4504 2.1641
H -1.8784 -5.0485 3.4805
H -1.9807 -2.6358 3.1313
*
