! B3LYP 6-31G* SP

* xyz 0 1
F 6.7603 2.7272 -0.4952
C 5.8228 1.7115 -0.5704
F 4.5845 2.2661 -0.3005
F 5.8261 1.2066 -1.8566
C 6.1398 0.5986 0.4118
C 7.4526 0.4710 0.9093
C 7.7759 -0.5315 1.8256
C 6.8012 -1.4305 2.2530
C 5.5024 -1.3421 1.7530
C 5.1614 -0.3492 0.8199
C 3.7804 -0.3355 0.2958
C 3.5255 -0.6715 -1.0594
C 2.2113 -0.6682 -1.5625
C 1.1856 -0.3348 -0.6824
N -0.1288 -0.2669 -0.9255
C -0.6628 0.0932 0.2723
C -2.1014 0.2966 0.5277
C -3.0407 0.1881 -0.4187
C -4.4981 0.4156 -0.0976
C -5.0438 -0.7115 0.8173
C -6.5699 -0.9114 0.7066
C -7.2868 0.3761 0.2899
C -6.8051 0.8737 -1.0869
C -5.3324 0.5243 -1.3871
N 0.2659 0.2506 1.2534
C 1.4205 -0.0248 0.6221
C 2.7060 -0.0172 1.1565
H 8.2346 1.1502 0.5948
H 8.7864 -0.6104 2.2056
H 7.0549 -2.2047 2.9654
H 4.7618 -2.0615 2.0817
H 4.3416 -0.9439 -1.7163
H 2.0061 -0.9207 -2.5949
H -0.6093 -0.4570 -1.8324
H -2.3981 0.5513 1.5384
H -2.7651 -0.0437 -1.4386
H -4.5840 1.3884 0.4385
H -4.5524 -1.6801 0.5727
H -4.7847 -0.4694 1.8717
H -6.9703 -1.2602 1.6828
H -6.7869 -1.7016 -0.0457
H -7.0965 1.1591 1.0566
H -8.3834 0.1984 0.2572
H -7.4443 0.4318 -1.8821
H -6.9394 1.9765 -1.1315
H -4.9041 1.3051 -2.0543
H -5.2905 -0.4453 -1.9329
H 2.8715 0.2336 2.1969
*
