! B3LYP 6-31G* SP

* xyz 0 1
N -6.8388 0.8890 4.7303
C -5.8673 0.7019 4.1300
C -4.6582 0.4689 3.3829
C -3.7165 -0.4543 3.8515
C -2.5417 -0.6850 3.1306
C -2.2927 -0.0014 1.9343
O -1.0972 -0.2829 1.2525
C -0.7165 0.2379 -0.0253
C 0.7879 0.0775 -0.2341
N 1.0110 -0.3163 -1.6332
S 2.1402 0.7501 -2.4313
O 2.2800 0.3555 -3.8750
O 1.6368 2.1666 -2.3632
C 3.7177 0.6236 -1.6439
C 4.3106 1.7693 -1.0895
C 5.5513 1.6868 -0.4528
C 6.2122 0.4595 -0.3621
Cl 7.7695 0.3582 0.4388
C 5.6308 -0.6877 -0.9094
C 4.3875 -0.6147 -1.5495
Cl 3.7049 -2.0943 -2.2161
C -0.2950 -0.2979 -2.2992
C -1.3481 -0.5096 -1.2086
O -2.5676 0.0918 -1.5707
C -1.5496 -2.0234 -0.9329
O -2.6301 -2.2249 -0.0639
C -3.2407 0.9310 1.4682
C -4.4173 1.1626 2.1890
F -5.3190 2.0640 1.7224
H -3.8904 -0.9964 4.7735
H -1.8212 -1.4033 3.5009
H -0.9424 1.3262 -0.0863
H 1.3124 1.0186 0.0459
H 1.1822 -0.7311 0.4184
H 3.8150 2.7295 -1.1458
H 5.9974 2.5776 -0.0292
H 6.1455 -1.6376 -0.8365
H -0.3330 -1.0880 -3.0798
H -0.4831 0.6824 -2.7951
H -2.8810 -0.3497 -2.4035
H -1.7613 -2.5509 -1.8902
H -0.6241 -2.4625 -0.4958
H -2.6770 -3.2029 0.0975
H -3.0831 1.4865 0.5565
*
