! B3LYP 6-31G* SP

* xyz 0 1
C -2.5873 1.1596 -2.0668
C -2.0369 1.5255 -0.7083
C -2.7750 2.3988 0.1184
F -3.9829 2.8785 -0.2749
C -2.2751 2.7934 1.3600
C -1.0357 2.3364 1.7927
F -0.5452 2.7400 2.9911
C -0.2934 1.4703 0.9927
C -0.7852 1.0225 -0.2466
C 0.0770 0.0786 -1.0847
C 1.1145 0.9256 -1.8364
N 0.6241 -1.0577 -0.2779
C -0.3196 -2.0773 0.1605
O 0.0448 -3.2824 0.2467
C -1.7323 -1.7775 0.4484
C -2.0978 -1.1503 1.6484
C -3.4440 -0.8785 1.9161
C -4.4305 -1.2590 1.0024
C -4.0732 -1.9160 -0.1781
C -2.7277 -2.1834 -0.4513
C 2.0698 -1.4271 -0.2081
C 2.6039 -1.9895 -1.5145
N 1.7283 -2.4467 -2.5500
O 3.8431 -2.1819 -1.6477
C 2.9308 -0.3549 0.4509
C 3.8570 0.4375 -0.2636
C 4.6528 1.3754 0.4003
C 4.5507 1.5255 1.7837
C 3.6536 0.7383 2.5083
C 2.8511 -0.1968 1.8479
H -1.8589 1.4334 -2.8542
H -3.5322 1.6920 -2.2980
H -2.7973 0.0736 -2.1159
H -2.8475 3.4676 1.9842
H 0.6660 1.1422 1.3488
H -0.5415 -0.3850 -1.8785
H 0.5887 1.6197 -2.5274
H 1.7783 0.3080 -2.4672
H 1.6972 1.5571 -1.1391
H -1.3429 -0.8643 2.3698
H -3.7244 -0.3799 2.8343
H -5.4708 -1.0474 1.2127
H -4.8371 -2.2202 -0.8814
H -2.4622 -2.6906 -1.3705
H 2.1804 -2.2893 0.4863
H 2.1259 -2.8609 -3.4203
H 0.6919 -2.4150 -2.4544
H 3.9623 0.3475 -1.3335
H 5.3535 1.9830 -0.1600
H 5.1685 2.2508 2.2942
H 3.5797 0.8508 3.5831
H 2.1625 -0.7999 2.4275
*
