! B3LYP 6-31G* SP

* xyz 0 1
C -4.7995 -1.0377 -0.2961
C -3.3044 -0.9686 -0.4269
C -2.4477 -1.4362 0.5094
C -2.9878 -2.1062 1.7562
C -0.9241 -1.3228 0.3238
C -0.3807 -1.8622 -0.9986
C -1.1989 -2.6857 -1.9680
C 0.9404 -1.7578 -1.2167
C 1.8232 -1.0537 -0.2138
C 3.2382 -0.8945 -0.8006
C 4.1443 -0.0991 0.1462
C 5.5568 0.0235 -0.4368
C 3.5389 1.2891 0.3895
C 2.1356 1.1844 1.0176
C 1.6165 2.5844 1.2319
O 1.3156 3.3134 0.2491
O 1.5409 3.1035 2.5209
C 1.1680 0.3068 0.1448
C -0.3155 0.0980 0.7317
C -0.2802 0.0988 2.2928
C -1.2293 1.2546 0.2560
O -1.9564 1.8156 1.0663
C -1.2576 1.7313 -1.1911
C -2.4628 2.6185 -1.5320
O -3.6622 1.9247 -1.3351
H -5.1323 -0.4569 0.5894
H -5.1293 -2.0933 -0.2016
H -5.2729 -0.6020 -1.2007
H -2.9156 -0.5476 -1.3437
H -2.1764 -2.4412 2.4346
H -3.6278 -1.3964 2.3211
H -3.5841 -3.0002 1.4777
H -0.4919 -2.0584 1.0392
H -2.1227 -3.0838 -1.5047
H -0.6188 -3.5689 -2.3121
H -1.4622 -2.0660 -2.8504
H 1.3737 -2.1679 -2.1267
H 1.8942 -1.6782 0.7047
H 3.6769 -1.9039 -0.9649
H 3.1833 -0.3793 -1.7868
H 4.2208 -0.6393 1.1168
H 5.9955 -0.9854 -0.5912
H 6.2129 0.5813 0.2650
H 5.5363 0.5586 -1.4107
H 3.4840 1.8466 -0.5733
H 4.2033 1.8597 1.0767
H 2.2701 0.7031 2.0102
H 1.2155 4.0492 2.6818
H 1.1059 0.8259 -0.8318
H -0.0147 1.0889 2.7079
H -1.2760 -0.1449 2.7164
H 0.4438 -0.6526 2.6750
H -0.3579 2.3448 -1.3924
H -1.2245 0.8634 -1.8813
H -2.3862 2.9304 -2.5975
H -2.4448 3.5340 -0.8986
H -4.3892 2.5583 -1.5687
*
