! B3LYP 6-31G* SP

* xyz 0 1
O 4.1207 -4.5165 1.0590
C 4.3373 -3.2981 0.8130
O 5.5719 -2.7426 1.1478
C 3.3062 -2.4703 0.1471
C 2.0898 -3.0382 -0.2781
C 1.1243 -2.2465 -0.9128
C 1.3455 -0.8746 -1.1067
S 0.1173 0.1276 -1.8801
O 0.8029 1.1988 -2.6845
O -0.6976 -0.7107 -2.8239
N -0.9330 0.8598 -0.6978
C -2.0061 0.0543 -0.1011
C -1.4495 -1.0431 0.7896
C -0.4880 -0.6829 1.7545
C 0.1002 -1.6448 2.5773
C -0.2815 -2.9802 2.4718
C -1.2714 -3.3562 1.5612
C -1.8922 -2.3996 0.7260
C -2.9874 -2.8475 -0.2278
F -2.5371 -2.7425 -1.5298
F -4.1145 -2.0587 -0.0642
F -3.3612 -4.1645 -0.0041
C -1.0943 2.2847 -0.7370
N -2.1740 2.8166 -1.3733
C -2.3865 4.1582 -1.4395
C -1.4762 5.0504 -0.8509
C -1.7298 6.5348 -0.8741
F -2.5101 6.8776 0.2147
F -0.5344 7.2359 -0.8149
F -2.3882 6.9008 -2.0382
C -0.3776 4.5207 -0.1557
C -0.1728 3.1392 -0.1051
Cl 1.2091 2.5197 0.7859
C 2.5568 -0.3088 -0.6909
C 3.5292 -1.0991 -0.0670
H 6.2966 -3.2999 1.5873
H 1.8876 -4.0926 -0.1285
H 0.2009 -2.7041 -1.2436
H -2.6385 -0.3334 -0.9228
H -2.6605 0.6958 0.5311
H -0.1846 0.3488 1.8664
H 0.8554 -1.3530 3.2984
H 0.1818 -3.7272 3.1064
H -1.5477 -4.4033 1.5170
H -3.2672 4.5260 -1.9498
H 0.3193 5.1774 0.3528
H 2.7553 0.7444 -0.8532
H 4.4534 -0.6328 0.2482
*
