! B3LYP 6-31G* SP

* xyz 0 1
C 4.5281 -0.1791 0.0905
C 3.7677 -1.1973 -0.7682
N 2.3360 -0.8762 -0.7675
C 1.8002 0.2437 -1.4865
O 2.5147 0.8372 -2.3404
N 0.4515 0.6939 -1.2449
C -0.2908 1.3609 -2.3206
C -0.5039 2.8250 -1.9582
C -1.0890 2.9674 -0.5774
C -1.7964 4.1368 -0.2542
C -2.2888 4.3324 1.0375
C -2.0645 3.3725 2.0242
C -1.3484 2.2126 1.7227
C -0.8561 1.9925 0.4232
C -0.0904 0.7110 0.1296
C -0.9563 -0.5113 0.3895
C -2.2205 -0.6517 -0.2097
C -3.0091 -1.7764 0.0454
C -2.5578 -2.7823 0.9177
C -3.3912 -4.0097 1.1983
F -2.7210 -5.1327 0.7482
F -3.6025 -4.1255 2.5605
F -4.6229 -3.9486 0.5689
C -1.3016 -2.6358 1.5318
F -0.8358 -3.5848 2.3833
C -0.5165 -1.5080 1.2773
C 3.9999 -2.6319 -0.2625
F 5.3459 -2.9468 -0.3252
F 3.5658 -2.7632 1.0457
F 3.3025 -3.5238 -1.0577
H 4.3940 0.8438 -0.3195
H 5.6151 -0.4067 0.0927
H 4.1515 -0.1924 1.1356
H 4.1533 -1.1425 -1.8104
H 1.6694 -1.5174 -0.2873
H 0.2488 1.2949 -3.2903
H -1.2687 0.8633 -2.4722
H -1.1772 3.2862 -2.7134
H 0.4717 3.3562 -1.9889
H -1.9618 4.9015 -1.0033
H -2.8372 5.2345 1.2761
H -2.4422 3.5294 3.0264
H -1.1788 1.4802 2.5025
H 0.7661 0.7112 0.8420
H -2.6162 0.1204 -0.8531
H -3.9756 -1.8496 -0.4363
H 0.4392 -1.4138 1.7780
*
