! B3LYP 6-31G* SP

* xyz 0 1
O 2.9101 -1.1841 -1.1335
C 2.0395 -1.0980 -0.2246
N 2.2807 -0.2382 0.8966
C 2.7160 1.1264 0.7645
C 2.5956 1.8225 -0.4547
C 2.9658 3.1679 -0.5387
C 3.4554 3.8321 0.5888
F 3.8109 5.1378 0.5055
C 3.5698 3.1524 1.8042
C 3.1963 1.8080 1.8938
N 0.8033 -1.8394 -0.3272
C 0.6761 -2.8754 -1.3612
C -0.1736 -4.0353 -0.8557
F -0.3491 -4.9352 -1.8950
F 0.4864 -4.6743 0.1798
C -1.5023 -3.5362 -0.3548
C -2.6302 -4.3760 -0.3999
C -3.8496 -3.9540 0.1318
C -3.9509 -2.7039 0.7396
C -2.8337 -1.8709 0.8159
C -1.6020 -2.2662 0.2578
C -0.3889 -1.3574 0.4070
C -0.7189 0.0614 -0.0250
C -0.6665 1.1134 0.9043
C -0.8938 2.4304 0.4980
C -1.2061 2.7192 -0.8407
C -1.3784 4.1477 -1.2906
F -0.1438 4.6683 -1.6310
F -2.2165 4.2182 -2.3899
F -1.9277 4.9149 -0.2779
C -1.2568 1.6670 -1.7707
C -1.0271 0.3498 -1.3645
H 2.0642 -0.6056 1.8502
H 2.1887 1.3408 -1.3336
H 2.8635 3.6975 -1.4771
H 3.9421 3.6682 2.6800
H 3.2788 1.2967 2.8446
H 0.2162 -2.4362 -2.2721
H 1.6733 -3.2787 -1.6428
H -2.5664 -5.3639 -0.8384
H -4.7135 -4.6045 0.0868
H -4.8935 -2.3848 1.1653
H -2.9284 -0.9156 1.3170
H -0.1451 -1.3721 1.4917
H -0.4195 0.9193 1.9406
H -0.8121 3.2253 1.2286
H -1.4640 1.8636 -2.8150
H -1.0744 -0.4427 -2.0989
*
