! B3LYP 6-31G* SP

* xyz 0 1
O 0.3624 0.1782 2.2265
C 0.5132 0.4585 1.0056
N -0.5886 1.0071 0.2614
C -1.9531 1.0408 0.8073
C -2.9110 1.8483 -0.0325
N -2.5982 2.4418 -1.2071
C -3.6478 3.1318 -1.7276
C -4.8092 3.1032 -0.9658
S -4.5019 2.1814 0.4055
C -2.4727 -0.3627 1.0752
N -2.5923 -0.7163 2.3870
C -3.0402 -1.9309 2.7883
C -3.4114 -2.8784 1.8445
C -3.3095 -2.5689 0.4913
C -2.8168 -1.3177 0.0673
C -2.7856 -1.0270 -1.4243
F -1.6397 -0.3509 -1.7838
F -3.8923 -0.2761 -1.7716
F -2.8121 -2.1980 -2.1632
C 1.8333 0.2347 0.3674
C 1.9454 0.0587 -1.0252
C 3.1926 -0.1603 -1.6180
C 4.3468 -0.2132 -0.8270
C 5.6093 -0.4310 -1.3942
C 6.7386 -0.4809 -0.5742
C 6.5948 -0.3131 0.8053
N 5.3638 -0.1029 1.3438
C 4.2448 -0.0489 0.5711
C 2.9946 0.1691 1.1599
H -0.3754 1.4947 -0.6365
H -1.9002 1.5811 1.7790
H -3.5738 3.6648 -2.6657
H -5.7420 3.5923 -1.2115
H -3.1148 -2.1558 3.8438
H -3.7831 -3.8453 2.1585
H -3.6258 -3.3170 -0.2242
H 1.0701 0.0664 -1.6600
H 3.2532 -0.2945 -2.6915
H 5.7214 -0.5619 -2.4639
H 7.7177 -0.6485 -1.0039
H 7.4634 -0.3502 1.4490
H 2.9322 0.2975 2.2341
*
