! B3LYP 6-31G* SP

* xyz 0 1
O 6.7943 -0.0792 -1.3975
C 6.1452 -1.0219 -0.8690
O 6.8263 -1.9933 -0.1394
C 4.6757 -1.0984 -1.0224
C 3.9533 -2.1468 -0.4260
C 2.5645 -2.2202 -0.5673
C 1.8792 -1.2531 -1.3116
S 0.1275 -1.3252 -1.4456
O -0.3267 -0.5994 -2.6815
O -0.3174 -2.7571 -1.5544
N -0.5745 -0.5845 -0.0427
C -0.9450 -1.3872 1.1240
C -2.4419 -1.4413 1.2573
C -3.1204 -0.4723 2.0151
C -4.5161 -0.4923 2.0959
C -5.2431 -1.4731 1.4156
C -4.5756 -2.4324 0.6488
C -3.1799 -2.4149 0.5644
C -0.7592 0.8343 -0.0300
N -1.8295 1.3715 -0.6738
C -2.0660 2.7094 -0.6875
C -1.2008 3.5884 -0.0175
C -1.4295 5.0773 -0.0710
F -0.8770 5.6993 1.0354
F -2.7844 5.3591 -0.0947
F -0.8431 5.5871 -1.2146
C -0.0703 3.0551 0.6213
C 0.1520 1.6758 0.6270
Cl 1.5802 1.0357 1.4283
C 2.5908 -0.2017 -1.9025
C 3.9794 -0.1247 -1.7618
H 7.8322 -1.9500 -0.0273
H 4.4591 -2.9079 0.1549
H 2.0233 -3.0277 -0.0900
H -0.5388 -2.4174 1.0313
H -0.4908 -0.9534 2.0406
H -2.5695 0.3013 2.5359
H -5.0345 0.2560 2.6816
H -6.3236 -1.4864 1.4778
H -5.1401 -3.1870 0.1163
H -2.6760 -3.1580 -0.0408
H -2.9284 3.0851 -1.2229
H 0.6412 3.7079 1.1116
H 2.0716 0.5649 -2.4634
H 4.5063 0.6983 -2.2281
*
