! B3LYP 6-31G* SP

* xyz 0 1
C 1.4491 -4.2796 0.7248
C 0.9558 -3.4086 -0.4252
N 0.0852 -2.3431 0.0824
C 0.4511 -1.0908 0.4669
N 1.6899 -0.6932 0.3338
S 2.5001 0.8005 0.6830
O 2.5705 1.0254 2.1682
O 1.8142 1.9592 0.0161
C 4.1349 0.6818 0.0416
C 5.2020 0.3129 0.8751
C 6.4946 0.2010 0.3533
C 6.7263 0.4508 -1.0019
C 5.6651 0.8105 -1.8379
C 4.3716 0.9233 -1.3193
N -0.6121 -0.3667 0.9560
C -0.7300 1.0101 1.4579
C -1.3044 1.9475 0.4193
C -1.1174 1.7345 -0.9579
C -1.6451 2.6293 -1.8924
C -2.3689 3.7576 -1.4715
C -2.9154 4.7440 -2.4755
F -2.9595 4.1983 -3.7480
F -4.2001 5.1190 -2.1236
F -2.1070 5.8653 -2.4983
C -2.5145 3.9959 -0.0917
F -3.1585 5.1028 0.3549
C -1.9896 3.0967 0.8408
C -1.6571 -1.2225 0.8471
C -3.0021 -1.0030 1.1660
C -3.9193 -2.0630 0.9778
C -5.3861 -1.8593 1.2594
F -6.0141 -1.4261 0.1066
F -5.5696 -0.9147 2.2555
F -5.9694 -3.0442 1.6744
C -3.4631 -3.2927 0.4361
C -2.1078 -3.4794 0.1168
C -1.2336 -2.4140 0.3341
H 2.1071 -5.0829 0.3316
H 2.0265 -3.6647 1.4476
H 0.5869 -4.7456 1.2482
H 1.8291 -2.9705 -0.9559
H 0.4060 -4.0344 -1.1599
H 5.0355 0.1083 1.9246
H 7.3161 -0.0821 0.9990
H 7.7269 0.3624 -1.4045
H 5.8443 0.9991 -2.8880
H 3.5559 1.1950 -1.9779
H -1.3962 1.0021 2.3481
H 0.2150 1.4010 1.8487
H -0.5619 0.8786 -1.3178
H -1.4832 2.4361 -2.9446
H -2.1161 3.2985 1.8975
H -3.3339 -0.0428 1.5377
H -4.1577 -4.1033 0.2548
H -1.7660 -4.4201 -0.2935
*
