! B3LYP 6-31G* SP

* xyz 0 1
O -4.3765 -4.9708 1.3720
C -4.3184 -3.7325 1.1433
O -5.2435 -2.8827 1.7497
C -3.2835 -3.1849 0.2376
C -2.3981 -4.0396 -0.4394
C -1.4382 -3.5171 -1.3086
C -1.3421 -2.1395 -1.5049
C -2.1991 -1.2662 -0.8175
C -2.0833 0.2225 -1.0194
N -0.7709 0.7152 -0.5605
C 0.2551 0.9364 -1.5492
O -0.0302 1.5656 -2.6032
C 1.6430 0.4643 -1.3417
C 2.7187 1.1435 -1.9364
N 3.9957 0.7200 -1.7395
C 4.2799 -0.3690 -0.9784
C 5.6081 -0.7705 -0.7940
C 5.8965 -1.8968 -0.0179
C 4.8600 -2.6274 0.5753
C 3.5303 -2.2321 0.3973
C 3.2324 -1.0988 -0.3752
C 1.9103 -0.6783 -0.5693
C -0.5181 1.1868 0.8223
C -1.4830 0.5994 1.8743
O -1.0641 0.9421 3.1687
C -0.5092 2.7026 0.8617
C 0.6630 3.3914 1.2246
C 0.6816 4.7882 1.2632
C -0.4638 5.5125 0.9239
C -1.6334 4.8402 0.5627
C -1.6588 3.4425 0.5317
C -3.1785 -1.7963 0.0406
H -5.9732 -3.2503 2.3461
H -2.4539 -5.1131 -0.3072
H -0.7712 -4.1838 -1.8396
H -0.5970 -1.7528 -2.1885
H -2.9040 0.7618 -0.5070
H -2.2278 0.4401 -2.0992
H 2.5456 2.0223 -2.5438
H 6.4167 -0.2169 -1.2563
H 6.9234 -2.2066 0.1231
H 5.0891 -3.5011 1.1708
H 2.7394 -2.8094 0.8600
H 1.0948 -1.2369 -0.1224
H 0.4835 0.8181 1.1312
H -1.4618 -0.5063 1.8011
H -2.5295 0.9361 1.7120
H -1.4132 1.8516 3.3565
H 1.5639 2.8485 1.4783
H 1.5861 5.3108 1.5510
H -0.4478 6.5940 0.9546
H -2.5214 5.4026 0.3103
H -2.5756 2.9436 0.2490
H -3.8479 -1.1232 0.5640
*
