! B3LYP 6-31G* SP

* xyz 0 1
C -2.6353 0.0659 -1.2833
C -1.9143 -1.0654 -0.5829
C -0.9094 -0.7990 0.3791
N -0.5159 0.5400 0.7024
C 0.4403 1.2563 -0.1456
C 1.7616 0.5351 -0.1726
C 2.5618 0.4908 0.9762
C 3.7796 -0.1933 0.9629
C 4.2159 -0.8605 -0.1973
C 5.5722 -1.5360 -0.2168
F 5.5521 -2.6291 -1.0687
F 5.8802 -2.0125 1.0523
C 6.6259 -0.5339 -0.7318
C 7.2870 0.3530 0.3176
C 8.0665 -0.7956 -0.3124
C 3.4170 -0.7976 -1.3587
F 3.8251 -1.3718 -2.5190
C 2.1938 -0.1207 -1.3380
S -1.1725 1.2921 2.1232
O -1.6395 0.2378 3.0882
O -0.1149 2.1162 2.8049
C -2.5266 2.3134 1.6580
C -3.8265 1.7924 1.6350
C -4.8966 2.5870 1.2126
C -4.6797 3.9146 0.8021
C -5.8115 4.7521 0.3482
O -5.6154 5.9393 -0.0303
O -7.1053 4.2362 0.3340
C -3.3705 4.4294 0.8232
C -2.3023 3.6323 1.2455
N -0.2876 -1.8242 1.0183
C -0.5790 -3.1236 0.7675
C -1.5484 -3.4550 -0.1827
C -1.8472 -4.8006 -0.4486
C -2.8151 -5.1305 -1.3993
C -3.4896 -4.1235 -2.0898
C -3.2012 -2.7791 -1.8361
C -2.2282 -2.4202 -0.8746
H -2.3968 0.0451 -2.3669
H -3.7306 -0.0399 -1.1415
H -2.3590 1.0639 -0.8948
H 0.5991 2.2887 0.2339
H 0.0240 1.3555 -1.1711
H 2.2461 0.9917 1.8815
H 4.3858 -0.1930 1.8595
H 6.5071 -0.0775 -1.7395
H 6.9980 0.1763 1.3766
H 7.5850 1.3584 -0.0532
H 8.2410 -1.6548 0.3718
H 8.8305 -0.4606 -1.0456
H 1.5881 -0.0991 -2.2377
H -4.0102 0.7664 1.9293
H -5.8912 2.1590 1.2014
H -7.8872 4.8011 0.0239
H -3.1698 5.4461 0.5081
H -1.2997 4.0416 1.2413
H -0.0468 -3.8961 1.3092
H -1.3329 -5.5963 0.0786
H -3.0427 -6.1699 -1.6012
H -4.2399 -4.3849 -2.8254
H -3.7443 -2.0333 -2.4005
*
