! B3LYP def2-TZVP SP

* xyz 0 1
O -4.9341 1.3467 2.7522
C -4.4967 1.0958 1.5969
C -3.4049 1.9484 1.0126
C -2.5172 1.1369 0.0308
C -1.6224 0.1212 0.8118
C -0.1775 0.5993 0.9908
N 0.4216 0.9022 -0.3173
C 1.8192 0.6515 -0.5627
O 2.2424 0.5915 -1.7499
N 2.7421 0.5227 0.5321
C 4.0463 -0.0721 0.4150
C 4.2936 -1.1261 -0.4816
C 5.5640 -1.7043 -0.5606
C 6.6121 -1.2366 0.2501
C 7.9685 -1.8936 0.1995
F 7.9966 -2.9491 1.0917
F 8.9616 -0.9905 0.5376
F 8.2332 -2.3709 -1.0725
C 6.3498 -0.2161 1.1796
C 5.0791 0.3610 1.2585
C -0.4134 1.4631 -1.3897
C -1.6672 2.1251 -0.8099
O -3.3541 0.4018 -0.8739
C -4.5078 -0.2784 -0.4617
C -5.0830 -1.2512 -1.2911
Br -4.3102 -1.6580 -2.9928
C -6.2215 -1.9451 -0.8667
C -6.7898 -1.6667 0.3795
C -6.2293 -0.6866 1.2037
C -5.0902 0.0185 0.7823
H -2.7804 2.3770 1.8275
H -3.8899 2.7914 0.4736
H -1.5861 -0.8405 0.2528
H -2.0504 -0.1164 1.8099
H -0.1510 1.5064 1.6321
H 0.3887 -0.2107 1.5002
H 2.4917 0.9787 1.4384
H 3.5006 -1.5237 -1.1009
H 5.7244 -2.5244 -1.2494
H 7.1265 0.1335 1.8483
H 4.8995 1.1511 1.9769
H 0.1582 2.2364 -1.9484
H -0.6997 0.6558 -2.0980
H -2.2800 2.5442 -1.6380
H -1.3378 2.9821 -0.1801
H -6.6646 -2.7022 -1.5008
H -7.6699 -2.2065 0.7041
H -6.6908 -0.4729 2.1596
*
