! B3LYP def2-TZVP SP

* xyz 0 1
C -2.1029 3.5615 0.6036
N -2.7043 2.2365 0.3527
C -2.2287 1.4605 -0.6680
O -1.2881 1.9039 -1.3794
C -2.7800 0.1806 -0.9207
C -2.3455 -0.6760 -1.9916
C -1.2270 -0.3426 -2.9653
C 0.1230 -0.4962 -2.3236
O 0.9481 0.4549 -2.3890
N 0.4858 -1.7336 -1.6904
C 1.6802 -1.9099 -0.9189
N 2.5599 -0.9228 -0.6474
C 3.5989 -1.3557 0.1210
C 4.6894 -0.4332 0.5349
C 4.7809 0.8465 -0.0469
C 5.7969 1.7294 0.3302
C 6.7335 1.3508 1.2943
I 8.2648 2.6856 1.8614
C 6.6525 0.0876 1.8843
C 5.6387 -0.8000 1.5108
C 3.5356 -2.7124 0.4608
S 2.1413 -3.3631 -0.2204
C -2.9561 -1.9294 -2.1575
C -3.9713 -2.3482 -1.3151
C -4.4015 -1.5338 -0.2793
C -3.8215 -0.2624 -0.0538
N -4.2447 0.5338 0.9907
C -5.3106 0.0687 1.9061
C -3.6758 1.7660 1.1921
O -4.0480 2.4797 2.1673
H -1.7734 4.0435 -0.3417
H -1.2301 3.4523 1.2812
H -2.8343 4.2617 1.0605
H -1.3660 0.6716 -3.3934
H -1.2540 -1.0183 -3.8476
H -0.1571 -2.5513 -1.7834
H 4.0708 1.1657 -0.7994
H 5.8553 2.7080 -0.1284
H 7.3737 -0.2069 2.6358
H 5.5994 -1.7622 2.0005
H 4.2518 -3.2732 1.0436
H -2.6404 -2.5991 -2.9484
H -4.4279 -3.3187 -1.4638
H -5.1948 -1.9234 0.3417
H -5.5557 0.7968 2.7061
H -4.9925 -0.8674 2.4129
H -6.2485 -0.1059 1.3369
*
