! B3LYP 6-31G* SP

* xyz -1 1
C -3.3058 -0.6744 -0.4468
C -2.3978 -1.4444 0.4869
C -1.1909 -0.8719 0.9524
N -0.7680 0.4262 0.5202
C -0.0982 0.5865 -0.7703
C 1.3316 0.1613 -0.6617
N 2.2980 1.0811 -0.3973
C 3.5964 0.7105 -0.2526
C 3.9556 -0.6391 -0.3568
C 5.3903 -1.0700 -0.2355
C 6.0331 -1.1377 -1.6261
C 6.7126 0.1383 -2.1021
C 7.5512 -1.0430 -1.6355
C 2.9452 -1.5688 -0.6331
N 1.6596 -1.1540 -0.7719
S -0.8534 1.7602 1.6260
O -1.4626 1.3132 2.9262
O 0.5309 2.2766 1.9031
C -1.8566 3.0258 0.9281
C -3.2510 2.9060 0.9585
C -4.0558 3.8924 0.3814
C -3.4746 5.0143 -0.2369
C -4.3210 6.0602 -0.8520
O -5.5757 5.9555 -0.8433
O -3.7419 7.1730 -1.4518
C -2.0735 5.1260 -0.2676
C -1.2711 4.1367 0.3086
N -0.4022 -1.5539 1.8239
C -0.7123 -2.7962 2.2666
C -1.8761 -3.4290 1.8234
C -2.1907 -4.7230 2.2671
C -3.3516 -5.3545 1.8206
C -4.2059 -4.7015 0.9317
C -3.9055 -3.4129 0.4818
C -2.7360 -2.7530 0.9209
H -4.3261 -0.6121 -0.0138
H -3.3498 -1.1872 -1.4302
H -2.9675 0.3665 -0.6193
H -0.6124 -0.0218 -1.5460
H -0.1491 1.6475 -1.0977
H 4.3457 1.4664 -0.0532
H 5.4397 -2.0797 0.2272
H 5.9376 -0.3771 0.4433
H 5.5960 -1.7841 -2.4183
H 6.7017 0.2789 -3.2040
H 6.7006 0.9942 -1.3928
H 8.0420 -0.8858 -0.6501
H 8.0423 -1.5982 -2.4622
H 3.1786 -2.6209 -0.7365
H -3.7152 2.0450 1.4230
H -5.1318 3.7751 0.4172
H -1.5959 5.9751 -0.7402
H -0.1943 4.2363 0.2647
H -0.0421 -3.2909 2.9591
H -1.5377 -5.2459 2.9561
H -3.5898 -6.3531 2.1637
H -5.1048 -5.1966 0.5873
H -4.5933 -2.9484 -0.2122
*
