! B3LYP 6-31G* SP

* xyz 0 1
C -7.5668 -2.1480 -1.5795
N -6.7821 -1.0222 -1.0351
C -5.4161 -1.0968 -1.0118
O -4.8549 -2.1161 -1.4989
C -4.6424 -0.0341 -0.4795
C -3.2047 -0.0583 -0.4052
C -2.3899 -1.3064 -0.7471
C -0.9511 -1.2678 -0.3081
O -0.0466 -1.0910 -1.1685
N -0.6252 -1.3977 1.0846
C 0.6980 -1.2402 1.6114
N 1.7841 -0.9540 0.8625
C 2.9129 -0.8388 1.6171
C 4.2275 -0.5270 0.9978
C 5.3206 -0.0919 1.7692
C 6.5489 0.2069 1.1696
F 7.5625 0.6280 1.9656
C 6.7063 0.0770 -0.2280
O 7.9063 0.3579 -0.9037
C 9.1136 0.8162 -0.3006
C 10.1818 0.9991 -1.3706
F 10.4227 -0.2064 -2.0056
F 9.7587 1.9293 -2.3028
F 11.3529 1.4439 -0.7865
C 5.6159 -0.3502 -0.9953
F 5.7441 -0.4772 -2.3404
C 4.3907 -0.6467 -0.3927
C 2.7132 -1.0424 2.9874
S 1.0816 -1.3675 3.2398
C -2.5294 1.1193 -0.0228
C -3.2246 2.2506 0.3695
C -4.6096 2.2486 0.3927
C -5.3484 1.1167 -0.0235
N -6.7280 1.1219 0.0037
C -7.4650 2.2806 0.5562
C -7.4304 0.0539 -0.4945
O -8.6944 0.0608 -0.4613
H -7.7723 -2.8837 -0.7742
H -7.0303 -2.6565 -2.4092
H -8.5296 -1.8016 -2.0101
H -2.8373 -2.1860 -0.2384
H -2.4269 -1.4714 -1.8459
H -1.4002 -1.5838 1.7602
H 5.2296 0.0383 2.8378
H 9.4717 0.0693 0.4412
H 8.9357 1.7917 0.2025
H 3.5705 -0.9784 -1.0181
H 3.4638 -1.0218 3.7648
H -1.4499 1.1787 -0.0122
H -2.6822 3.1370 0.6740
H -5.0885 3.1597 0.7208
H -8.5595 2.1128 0.6279
H -7.3084 3.1703 -0.0908
H -7.1188 2.4951 1.5901
*
