! B3LYP 6-31G* SP

* xyz 0 1
C -2.7302 2.5879 -1.6026
C -2.5019 1.3350 -0.8058
C -2.3562 1.3220 0.5422
C -2.5149 2.6061 1.3282
C -2.1043 0.0117 1.3084
C -3.0507 -1.0793 0.8091
C -4.5222 -0.9569 1.1063
C -2.6328 -2.0928 0.0186
C -1.1753 -2.3842 -0.2607
C -0.9776 -2.9018 -1.6958
C 0.5020 -3.2692 -1.9410
C 0.7037 -3.7489 -3.3825
C 1.4343 -2.0770 -1.6329
C 1.2113 -1.5373 -0.2018
C 2.1151 -0.3578 0.0686
O 3.3516 -0.4778 -0.1524
C 1.5864 0.8681 0.7230
C 2.1992 2.0675 0.6415
N 3.3087 2.3280 -0.2316
C 4.1084 3.5413 -0.0823
C 5.0076 3.4456 1.1470
O 5.8913 2.3687 1.0063
C 0.3444 0.7339 1.5258
O 0.1038 1.5662 2.4436
C -0.5960 -0.4482 1.3285
C -0.3718 -1.3995 2.5347
C -0.2766 -1.1503 -0.0270
H -1.8798 3.2877 -1.4645
H -2.8052 2.3359 -2.6815
H -3.6759 3.0769 -1.2899
H -2.4752 0.4078 -1.3663
H -2.4096 2.4397 2.4198
H -1.7403 3.3385 1.0185
H -3.5228 3.0366 1.1517
H -2.3929 0.1956 2.3671
H -5.0901 -0.8610 0.1567
H -4.8710 -1.8573 1.6540
H -4.7314 -0.0623 1.7307
H -3.3627 -2.8199 -0.3282
H -0.8715 -3.2010 0.4303
H -1.3043 -2.1258 -2.4243
H -1.6065 -3.8062 -1.8513
H 0.7734 -4.1106 -1.2643
H 1.7638 -4.0400 -3.5442
H 0.4380 -2.9462 -4.1039
H 0.0668 -4.6371 -3.5824
H 1.2571 -1.2618 -2.3703
H 2.4895 -2.4108 -1.7408
H 1.4786 -2.3435 0.5155
H 1.8116 2.8993 1.2186
H 3.4700 1.7398 -1.0789
H 3.4400 4.4240 0.0088
H 4.7407 3.6832 -0.9858
H 4.3840 3.3115 2.0592
H 5.5841 4.3916 1.2458
H 6.4211 2.3352 1.8447
H -0.5644 -0.8657 3.4904
H 0.6733 -1.7697 2.5729
H -1.0583 -2.2694 2.5092
H -0.4874 -0.4162 -0.8330
*
