! B3LYP 6-31G* SP

* xyz 0 1
C -6.5058 2.8354 1.3811
N -5.8741 1.6370 0.7939
C -4.5671 1.3532 1.0785
O -3.9425 2.1042 1.8766
C -3.9345 0.2166 0.5147
C -2.5385 -0.0856 0.6975
C -1.5847 0.8733 1.4111
C -0.1216 0.5552 1.2588
O 0.4969 0.9738 0.2428
N 0.5433 -0.2557 2.2406
C 1.9176 -0.6517 2.1495
N 2.7429 -0.3026 1.1399
C 3.9950 -0.8175 1.2971
C 5.0691 -0.5534 0.3036
C 4.8907 0.4469 -0.6683
C 5.8857 0.7109 -1.6128
C 7.0848 -0.0246 -1.6095
O 8.1097 0.2091 -2.5412
C 8.0774 1.2112 -3.5535
F 8.0604 2.4671 -2.9740
F 9.2072 1.0951 -4.3397
C 7.2647 -1.0286 -0.6473
Cl 8.7449 -1.9759 -0.6180
C 6.2675 -1.2918 0.2988
C 4.1601 -1.5839 2.4568
S 2.6960 -1.6089 3.2857
C -2.0437 -1.3115 0.2068
C -2.8534 -2.1781 -0.5072
C -4.1784 -1.8579 -0.7532
C -4.7493 -0.6642 -0.2544
N -6.0749 -0.3611 -0.4893
C -6.9186 -1.2617 -1.3064
C -6.6258 0.7783 0.0408
O -7.8477 1.0377 -0.1563
H -6.9375 2.5814 2.3722
H -5.7733 3.6620 1.5025
H -7.3080 3.2354 0.7247
H -1.8323 0.8906 2.4940
H -1.7247 1.8963 1.0007
H -0.0065 -0.5947 3.0617
H 3.9815 1.0346 -0.6966
H 5.7098 1.4899 -2.3415
H 7.1821 1.0783 -4.1968
H 6.4345 -2.0850 1.0135
H 5.0649 -2.0681 2.7948
H -1.0171 -1.6138 0.3594
H -2.4454 -3.1076 -0.8842
H -4.7489 -2.5744 -1.3258
H -7.9462 -0.8773 -1.4698
H -7.0156 -2.2476 -0.8038
H -6.4704 -1.3904 -2.3148
*
