! B3LYP 6-31G* SP

* xyz 0 1
C 4.2622 0.0705 -1.9206
C 3.0557 -0.1302 -1.0128
O 2.3629 1.0916 -0.8447
N 2.6359 1.5615 0.4051
C 3.7279 2.5178 0.5798
C 1.8169 1.1908 1.5330
O 2.2207 1.4503 2.6994
C 0.5160 0.5045 1.3651
S -0.3835 0.3928 -0.0558
C -1.6416 -0.4691 0.6594
C -2.8987 -0.8610 -0.0072
C -4.1140 -0.6005 0.6498
C -5.3323 -0.8855 0.0292
C -5.3523 -1.4353 -1.2523
C -4.1537 -1.7215 -1.9083
C -2.9241 -1.4605 -1.2907
O -1.7608 -1.8417 -1.9615
N -1.4192 -0.6410 1.9816
C -0.2270 -0.1140 2.3725
O 0.2052 -0.1930 3.6925
H 3.9425 0.5195 -2.8848
H 4.7436 -0.9096 -2.1234
H 5.0058 0.7351 -1.4341
H 2.3675 -0.8517 -1.5026
H 3.3830 -0.6004 -0.0542
H 3.3462 3.4446 1.0573
H 4.5196 2.0706 1.2167
H 4.1664 2.7888 -0.4035
H -4.1201 -0.1474 1.6343
H -6.2625 -0.6661 0.5380
H -6.2975 -1.6484 -1.7346
H -4.1790 -2.1701 -2.8935
H -0.8486 -1.8473 -1.5257
H -0.3629 -0.6482 4.3968
*
