! B3LYP 6-31G* SP

* xyz 0 1
C 3.3867 0.2650 2.7307
O 4.2375 0.1732 1.5995
C 3.8874 -0.8340 0.6378
C 5.1364 -0.9030 -0.2692
C 2.7051 -0.3568 -0.2427
C 2.2690 -1.1178 -1.3488
C 1.1865 -0.7088 -2.1295
C 0.5348 0.4991 -1.8601
C -0.6772 0.9114 -2.6509
N -1.8623 0.9392 -1.7877
C -2.3142 2.1876 -1.2449
N -2.7815 3.1328 -2.1023
C -3.2672 4.3245 -1.6800
C -3.3149 4.6196 -0.3159
C -3.8384 5.8442 0.1259
C -3.8902 6.1346 1.4893
C -3.4210 5.2084 2.4202
C -2.8951 3.9859 1.9946
C -2.8319 3.6698 0.6186
C -2.3061 2.4376 0.1489
C -1.7324 1.4248 1.1131
S -2.9417 -0.4252 -1.7560
O -4.1861 -0.0693 -0.9896
O -3.3438 -0.7803 -3.1605
C -2.1687 -1.8095 -0.9867
C -2.3049 -2.0206 0.3915
C -1.6681 -3.1022 1.0070
C -0.8933 -3.9978 0.2490
C -0.2118 -5.1399 0.8965
O -0.2708 -5.2935 2.1467
O 0.5045 -6.0557 0.1306
C -0.7761 -3.7922 -1.1369
C -1.4137 -2.7084 -1.7492
C 1.0398 1.3316 -0.8557
C 2.1163 0.9181 -0.0675
C 3.6403 -2.2386 1.3571
F 4.6459 -2.4033 2.2982
F 2.4334 -2.2030 2.0373
C 3.6065 -3.5458 0.5239
F 4.6483 -3.6363 -0.3765
F 3.7129 -4.6212 1.3890
F 2.4021 -3.6851 -0.1371
H 2.3116 0.1329 2.4873
H 3.4946 1.2799 3.1655
H 3.6996 -0.4561 3.5139
H 4.9722 -1.4739 -1.2039
H 5.4324 0.1227 -0.5811
H 5.9939 -1.3475 0.2801
H 2.7881 -2.0112 -1.6522
H 0.8686 -1.3328 -2.9550
H -0.8464 0.2120 -3.4981
H -0.4991 1.9123 -3.1021
H -3.6251 5.0365 -2.4136
H -4.2093 6.5745 -0.5836
H -4.2974 7.0794 1.8248
H -3.4656 5.4376 3.4772
H -2.5490 3.2966 2.7525
H -0.9402 1.8995 1.7283
H -2.5349 1.0393 1.7746
H -1.2603 0.5655 0.6014
H -2.9017 -1.3482 0.9939
H -1.7843 -3.2367 2.0756
H 0.9898 -6.8308 0.5652
H -0.1878 -4.4649 -1.7481
H -1.3100 -2.5660 -2.8171
H 0.5948 2.3022 -0.6759
H 2.4833 1.6180 0.6684
*
