! B3LYP 6-31G* SP

* xyz 0 1
C -4.4814 -2.5732 0.3373
C -3.2264 -2.2930 -0.4964
N -2.5513 -1.0976 0.0171
C -1.8540 -0.1780 -0.8393
O -1.8776 -0.3410 -2.0899
N -1.0817 0.9019 -0.2801
C -1.4953 1.5211 0.9837
C -1.2880 3.0288 0.9188
C 0.1086 3.3689 0.4816
C 0.6688 4.5985 0.8649
C 1.9326 4.9737 0.4052
C 2.6394 4.1361 -0.4575
C 2.0863 2.9189 -0.8601
C 0.8222 2.5163 -0.3905
C 0.2499 1.1834 -0.8488
C 1.1873 0.0372 -0.5165
C 1.5203 -0.9058 -1.5022
C 2.3377 -1.9963 -1.1934
C 2.8180 -2.1798 0.1140
C 3.7370 -3.3313 0.4354
F 3.6028 -3.7091 1.7603
F 3.4434 -4.4268 -0.3581
F 5.0449 -2.9469 0.2069
C 2.5011 -1.2260 1.0958
C 1.6823 -0.1366 0.7876
C -2.2602 -3.4884 -0.4798
F -2.8868 -4.6142 -0.9844
F -1.8336 -3.7486 0.8112
F -1.1564 -3.2100 -1.2663
H -4.2146 -2.7791 1.3960
H -5.1560 -1.6912 0.3068
H -5.0324 -3.4459 -0.0729
H -3.5579 -2.1206 -1.5443
H -2.3954 -1.0323 1.0484
H -2.5735 1.3331 1.1801
H -0.9082 1.0896 1.8221
H -1.4974 3.4610 1.9218
H -2.0054 3.4685 0.1926
H 0.1226 5.2709 1.5150
H 2.3593 5.9209 0.7091
H 3.6151 4.4328 -0.8199
H 2.6452 2.2849 -1.5375
H 0.1438 1.2709 -1.9533
H 1.1453 -0.7997 -2.5125
H 2.5916 -2.6987 -1.9774
H 2.8851 -1.3237 2.1035
H 1.4427 0.5763 1.5657
*
