! B3LYP 6-31G* SP

* xyz 0 1
C -0.3960 -0.8513 -1.5977
C -0.8242 0.4945 -1.0801
C -0.9589 1.5546 -1.9877
C -1.3904 2.8177 -1.5528
C -1.4799 3.9713 -2.5202
F -1.9374 3.5315 -3.7533
F -0.2253 4.5341 -2.6767
F -2.3527 4.9407 -2.0528
C -1.6501 3.0009 -0.1876
N -1.5108 1.9665 0.6800
C -1.1064 0.7308 0.2814
N -0.9293 -0.2896 1.2717
C -2.0883 -0.7725 2.0267
C -2.2631 -2.2511 1.8150
C -1.8541 -3.1652 2.8007
C -1.9670 -4.5403 2.5730
C -2.4882 -5.0119 1.3624
C -2.8947 -4.1082 0.3757
C -2.7810 -2.7323 0.5994
S 0.6749 -0.6761 1.8243
O 0.9054 -2.1538 1.6785
O 0.8180 -0.2980 3.2705
C 1.8840 0.2001 0.8850
C 2.7313 -0.4818 0.0005
C 3.6466 0.2251 -0.7828
C 3.7271 1.6263 -0.6970
C 4.6930 2.3702 -1.5369
O 4.7564 3.6287 -1.4765
O 5.5419 1.6857 -2.4052
C 2.8835 2.3036 0.2026
C 1.9719 1.5944 0.9891
H -1.1115 -1.1926 -2.3776
H 0.6181 -0.7712 -2.0478
H -0.3699 -1.6249 -0.8032
H -0.7247 1.3943 -3.0331
H -1.9540 3.9668 0.1961
H -3.0163 -0.2554 1.6927
H -1.9576 -0.5318 3.1058
H -1.4370 -2.8135 3.7388
H -1.6450 -5.2402 3.3337
H -2.5726 -6.0768 1.1871
H -3.2936 -4.4741 -0.5636
H -3.0859 -2.0412 -0.1754
H 2.6752 -1.5571 -0.0977
H 4.2828 -0.3260 -1.4646
H 6.2096 2.1840 -2.9838
H 2.9245 3.3815 0.2957
H 1.3216 2.1336 1.6673
*
