! B3LYP 6-31G* SP

* xyz 0 1
O 1.8196 0.9699 0.8340
C 1.6967 -0.1120 0.1977
N 2.8550 -0.7492 -0.3736
C 4.1979 -0.2580 -0.2236
C 4.6530 0.2763 0.9940
C 5.9716 0.7233 1.1210
C 6.8586 0.6471 0.0340
C 8.2931 1.0839 0.1919
F 9.0329 0.0377 0.7103
F 8.8314 1.4555 -1.0278
F 8.3788 2.1662 1.0504
C 6.4159 0.0638 -1.1655
C 5.0973 -0.3826 -1.2915
N 0.3880 -0.6943 0.0521
C -0.5330 -0.6303 1.1940
C -1.8706 -1.3151 0.8884
C -2.4177 -0.8501 -0.4812
C -1.3991 -1.1811 -1.6150
C 0.0362 -1.4767 -1.1396
C -3.7801 -1.5223 -0.8058
C -4.9357 -1.0515 0.1000
O -4.8951 -1.7424 1.3218
C -4.8995 0.4408 0.3438
C -6.0336 1.0905 0.8574
C -6.0120 2.4673 1.0932
C -4.8598 3.2072 0.8198
C -3.7228 2.5727 0.3101
Cl -2.2799 3.5178 -0.0224
C -3.7356 1.1899 0.0765
O -2.5945 0.5697 -0.4434
H 2.7221 -1.5895 -0.9783
H 4.0034 0.3180 1.8580
H 6.3022 1.1180 2.0738
H 7.0897 -0.0511 -2.0052
H 4.7728 -0.8229 -2.2262
H -0.0664 -1.1202 2.0760
H -0.7243 0.4346 1.4520
H -2.5725 -1.0549 1.7066
H -1.7345 -2.4192 0.8899
H -1.3678 -0.3322 -2.3339
H -1.7329 -2.0644 -2.2038
H 0.1336 -2.5576 -0.8986
H 0.7252 -1.2494 -1.9815
H -3.6880 -2.6296 -0.7489
H -4.0544 -1.2713 -1.8554
H -5.8852 -1.3029 -0.4297
H -5.8030 -1.6855 1.7198
H -6.9354 0.5306 1.0719
H -6.8904 2.9617 1.4878
H -4.8514 4.2738 1.0049
*
