! B3LYP 6-31G* SP

* xyz 0 1
O 7.3964 -2.2356 -0.9693
C 6.8892 -1.8339 0.1163
O 7.7240 -1.3580 1.1294
C 5.4231 -1.8628 0.3128
C 4.5722 -2.3542 -0.6933
C 3.1874 -2.3732 -0.5024
C 2.6322 -1.9026 0.6937
S 0.8831 -1.8960 0.9055
O 0.3508 -3.2629 0.5703
O 0.5361 -1.5947 2.3373
N 0.1632 -0.6934 -0.1321
C -0.3068 -1.1038 -1.4634
C -1.7914 -1.3064 -1.4843
C -2.5354 -2.0146 -0.5377
C -3.8874 -2.1199 -0.8911
C -4.8919 -2.7418 -0.1418
F -4.6140 -3.3020 1.0667
C -6.2005 -2.7789 -0.6609
C -6.4918 -2.1996 -1.9156
F -7.7571 -2.2526 -2.4109
C -5.4782 -1.5690 -2.6569
C -4.1904 -1.5392 -2.1178
S -2.7979 -0.8737 -2.7801
C 0.5409 0.6807 0.0702
N 1.8638 0.9959 0.0388
C 2.3178 2.2693 0.1238
C 1.4136 3.3320 0.1846
C 1.8793 4.6566 0.2061
C 0.9735 5.7184 0.2237
C -0.3992 5.4671 0.2084
C -0.8757 4.1526 0.1934
C 0.0217 3.0603 0.2079
C -0.4238 1.7088 0.2297
C -1.8922 1.3659 0.3976
C -2.2283 0.4387 1.5644
C -2.5358 1.9136 1.6710
C 3.4741 -1.4103 1.6987
C 4.8590 -1.3914 1.5109
H 8.7282 -1.3246 1.0032
H 4.9759 -2.7225 -1.6285
H 2.5480 -2.7516 -1.2896
H -0.0221 -0.3417 -2.2265
H 0.1797 -2.0565 -1.7691
H -2.1219 -2.4245 0.3749
H -6.9889 -3.2588 -0.0943
H -5.6919 -1.1216 -3.6229
H 3.3859 2.4495 0.0998
H 2.9426 4.8693 0.1992
H 1.3368 6.7389 0.2353
H -1.0976 6.2940 0.2032
H -1.9469 4.0060 0.1506
H -2.5630 1.3207 -0.4860
H -1.3899 0.1329 2.2243
H -3.1461 -0.1752 1.4458
H -1.8657 2.4527 2.3769
H -3.6153 2.1571 1.5738
H 3.0616 -1.0314 2.6243
H 5.4868 -1.0021 2.3018
*
