! B3LYP 6-31G* SP

* xyz 0 1
N 6.2886 -2.2906 -7.2080
C 5.4862 -2.0540 -6.4081
C 4.4949 -1.7584 -5.4078
C 3.4510 -0.8682 -5.6912
C 2.5010 -0.5631 -4.7087
C 2.5771 -1.1552 -3.4382
N 1.6000 -0.8101 -2.4408
C 1.1720 -1.7035 -1.3969
O 1.3511 -2.9455 -1.5307
N 0.5140 -1.1954 -0.2146
C 0.5885 0.2411 0.0967
C -0.0238 0.5573 1.4660
C -1.4224 -0.0953 1.6393
C -2.4893 0.5544 0.7090
C -2.7423 2.0300 1.0526
C -2.9103 2.2386 2.5358
C -3.5016 3.4166 3.0115
C -3.6521 3.6228 4.3852
C -3.2061 2.6599 5.2934
C -2.6014 1.4873 4.8318
Cl -2.0386 0.2906 5.9884
C -2.4406 1.2767 3.4545
O -1.8313 0.0999 2.9989
C -1.3543 -1.6334 1.3644
C -0.0119 -2.1267 0.7975
C 3.6420 -2.0313 -3.1525
C 4.5901 -2.3358 -4.1361
H 3.3755 -0.4031 -6.6668
H 1.7058 0.1339 -4.9378
H 1.0940 0.0942 -2.5575
H 0.0486 0.8231 -0.6782
H 1.6510 0.5681 0.0942
H -0.0641 1.6568 1.6116
H 0.6559 0.1689 2.2564
H -2.2050 0.4608 -0.3605
H -3.4537 0.0127 0.8364
H -3.6588 2.3667 0.5215
H -1.9029 2.6575 0.6863
H -3.8494 4.1719 2.3181
H -4.1158 4.5303 4.7462
H -3.3285 2.8271 6.3560
H -1.5489 -2.1966 2.3044
H -2.1559 -1.9459 0.6577
H 0.7293 -2.2223 1.6203
H -0.1695 -3.1406 0.3716
H 3.7574 -2.4620 -2.1665
H 5.4045 -3.0104 -3.9000
*
