! B3LYP 6-31G* SP

* xyz 0 1
C 1.8853 1.4930 -2.1025
C 2.7387 0.4024 -1.5137
C 3.8812 -0.0339 -2.2075
C 4.7280 -0.9963 -1.6515
C 4.4519 -1.5262 -0.3920
C 3.3215 -1.1042 0.3105
C 2.4523 -0.1516 -0.2435
C 1.2699 0.2638 0.5360
O 1.4539 0.9803 1.5555
N -0.0683 -0.1621 0.1717
C -0.2660 -1.5166 -0.3967
C -0.8515 -1.4615 -1.8176
C -1.0548 -2.3930 0.5624
C -0.3748 -3.0522 1.6002
C -1.0699 -3.8163 2.5395
C -2.4602 -3.9129 2.4692
C -3.1577 -3.2550 1.4510
Cl -4.9064 -3.3619 1.3745
C -2.4637 -2.4985 0.5016
C -1.2408 0.6842 0.5092
C -1.5139 0.7136 1.9995
N -2.5574 1.5405 2.5223
O -0.8824 -0.0503 2.7815
C -1.1055 2.0705 -0.1085
C -1.5811 2.2909 -1.4180
C -1.4231 3.5349 -2.0391
C -0.7884 4.5777 -1.3568
C -0.3132 4.3752 -0.0577
C -0.4655 3.1306 0.5645
H 0.8468 1.1301 -2.2322
H 1.8866 2.3794 -1.4265
H 2.2590 1.8152 -3.1031
H 4.1253 0.3779 -3.1797
H 5.6073 -1.3222 -2.1933
H 5.1151 -2.2643 0.0385
H 3.1181 -1.5270 1.2864
H 0.7174 -2.0170 -0.5288
H -0.1266 -0.9804 -2.5038
H -1.0350 -2.4883 -2.1915
H -1.7996 -0.8958 -1.8637
H 0.7070 -2.9762 1.6816
H -0.5329 -4.3227 3.3309
H -2.9950 -4.4977 3.2058
H -3.0344 -1.9880 -0.2668
H -2.1580 0.2311 0.0789
H -2.8220 1.4746 3.5302
H -3.0898 2.1903 1.9031
H -2.0716 1.4954 -1.9685
H -1.7866 3.6909 -3.0480
H -0.6629 5.5402 -1.8402
H 0.1817 5.1847 0.4695
H -0.0881 3.0044 1.5704
*
