! B3LYP 6-31G* SP

* xyz -1 1
C -0.0139 -3.5643 -0.6499
C -1.2932 -2.7964 -0.4220
C -1.2291 -1.4223 -0.0971
N 0.0262 -0.7279 -0.0328
C 0.5740 -0.2079 -1.2935
C 2.0732 -0.0365 -1.2457
C 2.6546 1.2035 -1.5602
C 4.0417 1.3692 -1.5027
C 4.8734 0.3044 -1.1388
O 6.2562 0.5375 -1.0721
C 7.2286 -0.4061 -0.6314
F 7.2483 -1.5003 -1.4760
F 8.4740 0.1921 -0.6491
F 6.9475 -0.8112 0.6619
C 4.2963 -0.9499 -0.8585
C 2.9086 -1.1190 -0.9236
S 0.3951 0.0737 1.4696
O -0.2741 -0.6539 2.6026
O 1.8764 0.0533 1.7211
C -0.1867 1.7361 1.4247
C 0.6589 2.7692 1.0056
C 0.1927 4.0861 0.9520
C -1.1269 4.3911 1.3287
C -1.6161 5.7861 1.2737
O -2.7978 6.0652 1.6112
O -0.7771 6.8104 0.8456
C -1.9702 3.3501 1.7527
C -1.5024 2.0334 1.8004
N -2.3676 -0.7355 0.1776
C -3.5933 -1.3109 0.1377
C -4.7227 -0.5476 0.4595
C -5.9928 -1.1265 0.4264
C -6.1410 -2.4679 0.0656
C -5.0205 -3.2384 -0.2596
C -3.7287 -2.6709 -0.2229
C -2.5640 -3.4171 -0.5187
Cl -2.6985 -5.1208 -0.9922
H 0.4209 -3.2914 -1.6339
H -0.1551 -4.6640 -0.6228
H 0.7098 -3.3276 0.1585
H 0.0728 0.7585 -1.5230
H 0.3376 -0.9006 -2.1283
H 2.0345 2.0487 -1.8388
H 4.4735 2.3374 -1.7318
H 4.9078 -1.7997 -0.5880
H 2.4896 -2.0896 -0.7057
H 1.6796 2.5575 0.7198
H 0.8671 4.8646 0.6217
H -2.9915 3.5513 2.0486
H -2.1669 1.2478 2.1322
H -4.6179 0.4968 0.7384
H -6.8642 -0.5328 0.6752
H -7.1287 -2.9125 0.0385
H -5.1781 -4.2746 -0.5305
*
