! B3LYP 6-31G* SP

* xyz 0 1
C 8.6906 0.6528 2.8130
O 8.3845 1.3353 1.6231
N 7.0612 1.1351 1.3941
C 6.6076 0.1097 0.4979
O 7.3826 -0.8508 0.2268
C 5.2309 0.1245 -0.0696
C 4.4658 1.3031 -0.1031
C 3.1888 1.3112 -0.6736
C 2.6475 0.1353 -1.2121
S 1.0699 0.1701 -1.9955
O 0.9326 1.4492 -2.7756
O 0.9696 -0.9780 -2.9585
N -0.1986 0.0652 -0.8003
C -0.4625 1.2275 0.0564
C -1.8231 1.8304 -0.2104
C -2.2252 2.1429 -1.5208
C -3.4162 2.8316 -1.7510
C -4.2233 3.2356 -0.6783
O -5.3391 4.0373 -0.9438
C -6.6546 3.7926 -0.4480
F -6.6844 3.8024 0.9340
F -7.1165 2.5730 -0.9151
F -7.4932 4.7922 -0.9135
C -3.8473 2.8894 0.6322
C -2.6507 2.2060 0.8632
C -1.1213 -1.0398 -0.8354
N -1.8127 -1.2696 -1.9838
C -2.7682 -2.2242 -2.0844
C -3.1127 -2.9931 -0.9711
C -4.1412 -3.9463 -1.0613
C -4.5130 -4.6865 0.0643
C -3.8425 -4.5075 1.2715
C -2.8132 -3.5638 1.3752
C -2.4233 -2.7974 0.2531
C -1.3648 -1.8478 0.3054
C -0.4889 -1.7211 1.5318
C 3.3935 -1.0491 -1.1673
C 4.6755 -1.0547 -0.6105
H 9.7211 0.9155 3.1247
H 8.0011 0.9292 3.6462
H 8.6638 -0.4471 2.6403
H 6.3732 1.7857 1.8467
H 4.8628 2.2396 0.2641
H 2.6335 2.2398 -0.7177
H 0.2965 2.0172 -0.1181
H -0.3659 0.9370 1.1208
H -1.6097 1.8726 -2.3678
H -3.6967 3.1014 -2.7602
H -4.4297 3.2238 1.4841
H -2.3456 2.0061 1.8863
H -3.2728 -2.3627 -3.0337
H -4.6797 -4.0963 -1.9871
H -5.3124 -5.4125 -0.0125
H -4.1314 -5.0878 2.1406
H -2.3449 -3.4327 2.3411
H -1.0155 -1.1492 2.3218
H -0.2323 -2.7260 1.9286
H 0.4863 -1.2371 1.3024
H 2.9945 -1.9645 -1.5874
H 5.2394 -1.9749 -0.6221
*
