! B3LYP 6-31G* SP

* xyz 0 1
C -6.9760 -2.1117 1.7034
N -6.2527 -0.8927 1.2911
C -5.0591 -0.9984 0.6267
O -4.6012 -2.1456 0.3731
C -4.3535 0.1643 0.2248
C -3.1185 0.1508 -0.5089
C -2.4248 -1.1531 -0.9018
C -1.1083 -0.9953 -1.6127
O -1.0866 -1.0041 -2.8730
N 0.0972 -0.8065 -0.8529
C 1.3915 -0.5377 -1.4128
N 2.5073 -0.4783 -0.6558
C 3.6201 -0.1908 -1.3896
C 4.9608 -0.0926 -0.7545
C 6.0553 0.4823 -1.4281
C 7.3074 0.5657 -0.8117
C 7.4927 0.0768 0.4948
O 8.7297 0.1357 1.1581
C 9.9307 0.6825 0.6173
F 10.3014 -0.0133 -0.5198
F 10.9375 0.5689 1.5566
F 9.7523 2.0212 0.3154
C 6.4055 -0.4917 1.1677
F 6.5636 -0.9674 2.4289
C 5.1525 -0.5736 0.5532
C 3.3794 -0.0166 -2.7568
S 1.7339 -0.2276 -3.0306
C -2.5509 1.3872 -0.8840
C -3.1661 2.5796 -0.5340
N -4.3146 2.5670 0.1757
C -4.9247 1.4156 0.5696
N -6.0832 1.4813 1.2969
C -6.6515 2.7986 1.6454
C -6.7492 0.3349 1.6392
O -7.8361 0.4094 2.2817
H -8.0760 -1.9512 1.6935
H -6.6587 -2.4050 2.7267
H -6.7871 -2.9560 1.0063
H -2.2319 -1.7508 0.0144
H -3.1027 -1.7340 -1.5641
H 0.0341 -0.8711 0.1879
H 5.9506 0.8854 -2.4257
H 8.1214 1.0164 -1.3619
H 4.3332 -1.0205 1.1030
H 4.1085 0.1959 -3.5255
H -1.6321 1.4510 -1.4497
H -2.7251 3.5240 -0.8240
H -5.8503 3.5093 1.9414
H -7.3431 2.7406 2.5127
H -7.2027 3.2091 0.7728
*
