! B3LYP 6-31G* SP

* xyz -1 1
C 1.0860 1.9850 -2.4393
C 1.5925 0.8913 -1.5236
C 0.7793 0.3974 -0.4819
N -0.5512 0.8852 -0.2802
C -1.6489 0.3980 -1.1182
C -2.3505 -0.7518 -0.4483
C -3.6038 -0.5680 0.1546
C -4.2382 -1.6338 0.7991
C -3.6343 -2.8954 0.8555
O -4.3191 -3.9299 1.5138
C -3.8403 -5.2632 1.6752
F -2.6588 -5.2586 2.3951
F -4.7825 -5.9974 2.3700
F -3.6388 -5.8518 0.4396
C -2.3737 -3.0785 0.2542
C -1.7405 -2.0143 -0.3939
S -0.8791 1.9029 1.0867
O 0.4064 2.2566 1.7833
O -1.7644 1.1778 2.0620
C -1.6490 3.3827 0.5277
C -0.8795 4.3751 -0.0928
C -1.4856 5.5399 -0.5732
C -2.8736 5.7254 -0.4438
C -3.5133 6.9566 -0.9582
O -4.7574 7.1266 -0.8473
O -2.7499 7.9434 -1.5738
C -3.6418 4.7216 0.1758
C -3.0329 3.5583 0.6567
N 1.2471 -0.5644 0.3503
C 2.4837 -1.1085 0.2362
C 2.8326 -2.2035 1.1660
C 2.7413 -2.0011 2.5529
C 3.0290 -3.0460 3.4371
C 3.3930 -4.3019 2.9432
C 3.4622 -4.5180 1.5639
C 3.1750 -3.4763 0.6764
C 3.3598 -0.6406 -0.7713
C 4.6852 -1.1133 -0.8831
C 5.5242 -0.6451 -1.8935
C 5.0649 0.3051 -2.8001
C 3.7686 0.8082 -2.6935
C 2.8996 0.3593 -1.6729
H 1.0232 1.6008 -3.4792
H 0.0822 2.3610 -2.1567
H 1.7758 2.8545 -2.4031
H -2.3575 1.2296 -1.3230
H -1.2603 0.0649 -2.1059
H -4.0893 0.3998 0.1286
H -5.2053 -1.4779 1.2592
H -1.8737 -4.0362 0.2783
H -0.7727 -2.1748 -0.8534
H 0.1896 4.2433 -0.2108
H -0.8683 6.2925 -1.0495
H -4.7136 4.8336 0.2861
H -3.6433 2.7947 1.1229
H 2.4550 -1.0344 2.9489
H 2.9660 -2.8836 4.5055
H 3.6136 -5.1098 3.6290
H 3.7322 -5.4945 1.1824
H 3.2142 -3.6625 -0.3904
H 5.0906 -1.8317 -0.1839
H 6.5370 -1.0190 -1.9712
H 5.7201 0.6634 -3.5836
H 3.4613 1.5512 -3.4163
*
