! B3LYP 6-31G* SP

* xyz 0 1
O 2.2556 -1.3773 -1.1101
C 1.8718 -0.2678 -0.6482
N 2.8160 0.6114 -0.0123
C 4.1522 0.2254 0.3364
N 4.6380 -1.0333 0.1949
C 5.9260 -1.1024 0.6180
C 6.7020 -2.2626 0.5981
C 8.0255 -2.1982 1.0681
C 8.5548 -0.9835 1.5495
F 9.8325 -0.9352 2.0005
C 7.7642 0.1774 1.5647
C 6.4568 0.0871 1.0933
S 5.2915 1.2920 0.9948
N 0.4920 0.1198 -0.7964
C -0.1133 1.1176 0.0973
C -1.5792 0.7625 0.3739
C -2.4354 0.5794 -0.9225
C -3.3656 1.7986 -1.1667
C -4.4916 1.9083 -0.1245
C -5.1472 0.5820 0.1528
C -6.4017 0.5406 0.7805
C -7.0061 -0.6866 1.0655
C -6.3596 -1.8797 0.7341
C -5.1029 -1.8506 0.1200
Cl -4.3007 -3.3608 -0.2819
C -4.4885 -0.6218 -0.1630
O -3.2323 -0.6027 -0.7804
C -1.5415 0.3847 -2.1744
C -0.3100 -0.4752 -1.8745
H 2.5397 1.6008 0.1745
H 6.2943 -3.1950 0.2293
H 8.6413 -3.0883 1.0600
H 8.1593 1.1154 1.9334
H 0.4202 1.1417 1.0725
H -0.0457 2.1245 -0.3679
H -2.0016 1.5355 1.0475
H -1.5860 -0.1878 0.9534
H -3.8390 1.7011 -2.1697
H -2.7728 2.7400 -1.1668
H -5.2514 2.6267 -0.5033
H -4.0993 2.3213 0.8278
H -6.9111 1.4585 1.0472
H -7.9759 -0.7128 1.5455
H -6.8345 -2.8266 0.9577
H -2.1297 -0.0882 -2.9915
H -1.1880 1.3703 -2.5526
H -0.6219 -1.5011 -1.5820
H 0.2990 -0.5432 -2.8025
*
