! B3LYP 6-31G* SP

* xyz -1 1
C -0.0375 0.4256 -2.0915
C -0.9918 1.1817 -1.1928
C -1.6311 0.5326 -0.1103
N -1.4024 -0.8537 0.1655
C -0.5906 -1.2399 1.3196
C 0.8558 -0.9288 1.0532
C 1.3782 0.3332 1.3732
C 2.7002 0.6522 1.0521
C 3.5185 -0.2884 0.3979
O 4.8490 -0.0128 0.0507
C 5.5114 1.2269 0.3037
C 6.9634 1.2337 -0.2015
C 7.2525 0.4393 -1.4673
C 7.7248 -0.0813 -0.1154
C 2.9917 -1.5453 0.0742
F 3.7642 -2.4601 -0.5635
C 1.6681 -1.8624 0.3931
S -2.3387 -2.0486 -0.6737
O -2.9534 -1.4492 -1.9080
O -1.4436 -3.1815 -1.0921
C -3.6152 -2.6250 0.3902
C -3.5320 -3.8906 0.9849
C -4.5390 -4.3287 1.8503
C -5.6409 -3.5037 2.1374
C -6.7042 -3.9700 3.0542
O -7.6969 -3.2366 3.3103
O -6.6256 -5.2268 3.6433
C -5.7131 -2.2306 1.5428
C -4.7050 -1.7955 0.6778
N -2.4654 1.2270 0.7066
C -2.7289 2.5436 0.5281
C -2.1287 3.2436 -0.5211
C -2.3953 4.6093 -0.7043
C -1.7889 5.3084 -1.7485
C -0.9132 4.6527 -2.6143
C -0.6386 3.2932 -2.4434
C -1.2441 2.5635 -1.3959
H -0.3853 0.4858 -3.1440
H 0.0433 -0.6483 -1.8342
H 0.9791 0.8648 -2.0093
H -0.7074 -2.3254 1.5302
H -0.9443 -0.6997 2.2249
H 0.7565 1.0760 1.8582
H 3.0727 1.6341 1.3097
H 5.5235 1.4238 1.3967
H 4.9640 2.0490 -0.2048
H 7.5809 2.1469 -0.0657
H 6.4089 -0.1358 -1.9044
H 8.0682 0.8556 -2.0954
H 7.1615 -0.9667 0.2492
H 8.8188 0.0265 0.0457
H 1.2720 -2.8318 0.1163
H -2.6880 -4.5382 0.7844
H -4.4520 -5.3117 2.2961
H -6.5457 -1.5694 1.7483
H -4.7722 -0.8096 0.2347
H -3.4060 3.0423 1.2106
H -3.0706 5.1352 -0.0395
H -1.9965 6.3618 -1.8859
H -0.4438 5.2003 -3.4218
H 0.0487 2.8276 -3.1363
*
