! B3LYP 6-31G* SP

* xyz 0 1
C -3.4784 0.8582 0.3008
C -2.4600 1.8013 -0.2797
C -2.8254 3.1391 -0.4994
C -1.9005 4.0471 -1.0308
C -2.2318 5.3959 -1.2363
C -1.2765 6.2831 -1.7580
C 0.0075 5.8303 -2.0783
C 0.3445 4.4872 -1.8764
C -0.6044 3.5930 -1.3547
N -0.2741 2.2900 -1.1536
C -1.1553 1.3880 -0.6331
N -0.7191 0.0389 -0.4260
C -0.2426 -0.3864 0.8922
C 1.2463 -0.6387 0.9241
C 1.7707 -1.4420 1.9456
C 3.1474 -1.6528 2.0505
C 4.0267 -1.0562 1.1377
C 5.5110 -1.2491 1.2835
C 6.0965 -0.1429 2.1667
C 7.4294 -0.4804 2.8240
C 6.1568 -0.4548 3.6568
C 3.5113 -0.2271 0.1317
C 2.1330 -0.0195 0.0264
S -0.8249 -1.0976 -1.7361
O -0.8584 -0.3578 -3.0466
O 0.3800 -1.9966 -1.7388
C -2.2875 -2.0606 -1.5591
C -2.2838 -3.1913 -0.7315
C -3.4491 -3.9443 -0.5605
C -4.6358 -3.5821 -1.2234
C -5.8650 -4.3880 -1.0488
O -6.9201 -4.0845 -1.6679
O -5.8669 -5.4937 -0.2003
C -4.6331 -2.4435 -2.0515
C -3.4681 -1.6862 -2.2139
H -3.9684 1.3319 1.1768
H -3.0307 -0.0969 0.6384
H -4.2510 0.6395 -0.4628
H -3.8237 3.4728 -0.2430
H -3.2235 5.7634 -0.9930
H -1.5317 7.3233 -1.9212
H 0.7410 6.5194 -2.4920
H 1.3390 4.1447 -2.1303
H -0.4784 0.3854 1.6551
H -0.7853 -1.3102 1.1850
H 1.1117 -1.9009 2.6705
H 3.5301 -2.2747 2.8489
H 5.9983 -1.2023 0.2890
H 5.7225 -2.2588 1.6981
H 5.9685 0.9245 1.8872
H 8.0982 0.3936 3.0027
H 7.8190 -1.5069 2.6280
H 5.7890 -1.4607 3.9622
H 6.0532 0.4386 4.3102
H 4.1784 0.2659 -0.5663
H 1.7691 0.6229 -0.7588
H -1.3794 -3.4866 -0.2135
H -3.4210 -4.8081 0.0920
H -6.6990 -6.0592 -0.0854
H -5.5316 -2.1334 -2.5724
H -3.4946 -0.8032 -2.8411
*
