! B3LYP 6-31G* SP

* xyz 0 1
O 7.1833 1.9615 -3.3218
C 7.1663 1.5163 -2.1422
O 8.3437 1.5116 -1.3986
C 5.9096 1.0045 -1.5523
C 5.8930 0.5088 -0.2377
C 4.7073 0.0241 0.3219
C 3.5139 0.0408 -0.4126
N 2.3155 -0.4871 0.1805
C 1.0034 0.0669 -0.0246
O 0.8558 1.1074 -0.7208
N -0.1532 -0.5615 0.5583
C -0.1274 -1.0522 1.9389
C -0.5004 -2.5297 1.9543
C -1.7664 -2.7870 1.1761
C -2.5086 -3.9479 1.4474
C -3.6479 -4.2511 0.6993
C -4.0488 -3.4087 -0.3378
C -3.3123 -2.2594 -0.6307
C -2.1673 -1.9340 0.1181
C -1.4008 -0.6639 -0.2169
C -2.2522 0.5765 -0.0086
C -2.2587 1.5903 -0.9809
C -3.0177 2.7490 -0.7958
C -3.7706 2.9284 0.3764
C -4.6291 4.1550 0.5560
F -4.7360 4.4820 1.8968
F -5.8915 3.9046 0.0512
F -4.0835 5.2384 -0.1111
C -3.7854 1.9052 1.3384
C -3.0261 0.7469 1.1539
C 3.5324 0.5121 -1.7363
C 4.7177 0.9963 -2.2980
H 9.2095 1.8597 -1.7928
H 6.7959 0.4927 0.3596
H 4.7151 -0.3559 1.3360
H 2.4218 -1.2949 0.8334
H 0.8677 -0.9107 2.4099
H -0.8506 -0.4764 2.5525
H -0.6227 -2.8570 3.0098
H 0.3240 -3.1196 1.4989
H -2.2009 -4.6222 2.2373
H -4.2166 -5.1455 0.9192
H -4.9303 -3.6483 -0.9184
H -3.6356 -1.6170 -1.4407
H -1.1349 -0.7486 -1.2955
H -1.6793 1.4833 -1.8895
H -3.0163 3.5046 -1.5714
H -4.3877 1.9999 2.2333
H -3.0599 -0.0237 1.9128
H 2.6410 0.4811 -2.3481
H 4.7020 1.3547 -3.3197
*
