! B3LYP 6-31G* SP

* xyz 0 1
C 0.0675 -2.9853 1.5211
C -0.7833 -1.7159 1.7021
C -2.2768 -1.9271 1.4786
C -3.1849 -1.0568 2.1147
C -4.5574 -1.1514 1.8604
C -5.0423 -2.1159 0.9716
F -6.3725 -2.2010 0.7211
C -4.1516 -2.9739 0.3263
C -2.7780 -2.8821 0.5709
N -0.2624 -0.6221 0.8498
C -0.5699 -0.5936 -0.5965
C -1.9027 0.0710 -0.8772
C -2.7304 -0.4348 -1.8972
C -3.9774 0.1412 -2.1482
C -4.4094 1.2349 -1.3931
C -3.5905 1.7743 -0.3849
C -4.0625 2.9168 0.4319
O -3.3080 3.4390 1.2975
O -5.3490 3.4225 0.2564
C -2.3282 1.1984 -0.1477
C 0.5677 0.4113 1.4359
O 0.4589 0.7008 2.6625
C 1.5398 1.1620 0.6278
C 1.2761 2.4889 0.2609
C 2.2020 3.1978 -0.5049
C 3.4043 2.5879 -0.8975
C 3.6842 1.2590 -0.5324
C 4.9915 0.6415 -0.8755
C 5.0707 -0.7033 -1.2898
C 6.3170 -1.2945 -1.5532
C 7.4917 -0.5529 -1.4092
C 7.4217 0.7861 -1.0028
C 6.1819 1.3810 -0.7464
C 2.7354 0.5445 0.2233
H -0.3499 -3.8174 2.1279
H 1.1092 -2.7889 1.8598
H 0.1160 -3.3042 0.4606
H -0.6687 -1.4481 2.7778
H -2.8258 -0.2857 2.7906
H -5.2453 -0.4685 2.3427
H -4.5238 -3.7110 -0.3731
H -2.1156 -3.5457 0.0333
H 0.2195 -0.0686 -1.1735
H -0.5789 -1.6340 -0.9903
H -2.4184 -1.2902 -2.4869
H -4.6133 -0.2660 -2.9257
H -5.3823 1.6589 -1.5996
H -5.6798 4.1999 0.8168
H -1.6975 1.6041 0.6348
H 0.3532 2.9751 0.5659
H 1.9929 4.2252 -0.7869
H 4.1092 3.1561 -1.4918
H 4.1723 -1.2949 -1.4157
H 6.3748 -2.3314 -1.8669
H 8.4497 -1.0129 -1.6066
H 8.3329 1.3592 -0.8847
H 6.1523 2.4130 -0.4073
H 2.9439 -0.4724 0.5422
*
