! B3LYP 6-31G* SP

* xyz 0 1
C -0.6505 4.0328 1.7581
C -2.0817 3.4822 1.8753
C -2.9897 4.1511 0.8347
C -2.1250 1.9675 1.7122
N -1.1653 1.3892 0.9562
C -1.0768 0.0653 0.6993
N 0.0132 -0.3552 -0.1345
C -0.1550 -0.3324 -1.5994
C 0.4990 0.8681 -2.2470
C 1.5220 0.6899 -3.1932
C 2.1408 1.7918 -3.7887
C 1.7362 3.0985 -3.4574
O 2.3312 4.2417 -4.0160
C 3.3920 4.2347 -4.9703
F 4.5056 3.6059 -4.4402
F 2.9902 3.5868 -6.1264
F 3.7241 5.5392 -5.2805
C 0.6932 3.2760 -2.5400
C 0.0682 2.1728 -1.9509
S 1.6093 -0.3904 0.5696
O 2.4264 0.7531 0.0359
O 1.4979 -0.2230 2.0605
C 2.4339 -1.9136 0.2299
C 2.5914 -2.8828 1.2308
C 3.2610 -4.0795 0.9566
C 3.7959 -4.3203 -0.3212
C 4.5158 -5.5788 -0.6147
O 4.6883 -6.4419 0.2879
O 5.0176 -5.8184 -1.8903
C 3.6494 -3.3387 -1.3152
C 2.9801 -2.1449 -1.0367
C -2.0243 -0.8354 1.2711
C -1.8988 -2.3698 1.1431
C -1.1316 -2.9366 2.3420
C -1.3257 -2.9212 -0.1686
C -3.0543 -0.2657 2.0977
C -4.0111 -1.0661 2.7780
C -5.0425 -0.4930 3.5191
C -5.1482 0.8861 3.6225
C -4.2011 1.7044 3.0155
C -3.1325 1.1510 2.2720
H -0.6428 5.1181 1.9892
H 0.0160 3.5220 2.4863
H -0.2487 3.8886 0.7309
H -2.4229 3.7664 2.8936
H -4.0407 3.8181 0.9634
H -2.9591 5.2534 0.9512
H -2.6580 3.8909 -0.1928
H -1.2358 -0.3182 -1.8634
H 0.2647 -1.2705 -2.0222
H 1.8311 -0.3021 -3.4907
H 2.9307 1.6110 -4.5031
H 0.3559 4.2759 -2.2979
H -0.7759 2.3396 -1.3022
H 2.2157 -2.7110 2.2301
H 3.3662 -4.8128 1.7470
H 5.5183 -6.6738 -2.1009
H 4.0632 -3.4844 -2.3050
H 2.9086 -1.3935 -1.8052
H -2.9126 -2.8129 1.1446
H -1.1200 -4.0468 2.3057
H -0.0901 -2.5636 2.3436
H -1.6102 -2.6281 3.2950
H -1.8198 -2.4442 -1.0396
H -0.2236 -2.8184 -0.2162
H -1.5354 -4.0106 -0.2347
H -3.9874 -2.1424 2.7779
H -5.7661 -1.1268 4.0166
H -5.9603 1.3255 4.1884
H -4.3292 2.7699 3.1338
*
