! B3LYP 6-31G* SP

* xyz 0 1
C 8.4947 -0.2899 2.4505
C 7.1674 -0.0326 1.8005
C 6.2583 -1.0817 1.6090
C 5.0378 -0.8504 0.9682
C 4.7056 0.4338 0.4973
C 3.4021 0.6572 -0.1823
C 2.8584 1.9179 -0.4542
S 1.3722 1.6972 -1.2088
C 1.4796 0.0182 -1.1716
N 0.4809 -0.9041 -1.6293
C -0.7037 -0.5289 -2.3493
O -0.7831 0.5965 -2.9126
C -1.8317 -1.5101 -2.5012
C -3.1752 -0.8528 -2.2323
C -3.9601 -0.5639 -3.3597
C -5.1893 0.0605 -3.2342
C -5.6670 0.4208 -1.9835
C -4.9184 0.1668 -0.8092
C -3.6519 -0.4764 -0.9284
C -2.9269 -0.7046 0.2667
O -1.8210 -1.3082 0.2393
N -3.4156 -0.2800 1.4712
C -2.6382 -0.5265 2.7021
C -4.6517 0.2983 1.5572
O -5.1056 0.6193 2.6930
N -5.4017 0.5288 0.4315
C -6.7285 1.1713 0.5629
N 2.6217 -0.3879 -0.5789
C 5.6356 1.4779 0.6717
C 6.8559 1.2438 1.3128
H 8.4190 -1.1226 3.1823
H 9.2407 -0.5573 1.6726
H 8.8456 0.6136 2.9937
H 6.4930 -2.0804 1.9569
H 4.3525 -1.6799 0.8455
H 3.2853 2.8796 -0.2083
H 0.6147 -1.9122 -1.3906
H -1.7843 -1.9137 -3.5360
H -1.6971 -2.3997 -1.8527
H -3.6169 -0.8204 -4.3547
H -5.7783 0.2714 -4.1179
H -6.6314 0.9066 -1.9580
H -2.8396 0.2470 3.4736
H -1.5453 -0.4817 2.5070
H -2.8955 -1.5261 3.1113
H -7.0118 1.3903 1.6125
H -7.5157 0.5018 0.1556
H -6.7346 2.1407 0.0203
H 5.4386 2.4732 0.3004
H 7.5601 2.0593 1.4260
*
