! B3LYP 6-31G* SP

* xyz 0 1
O 4.9622 0.1389 0.7205
C 4.1077 0.2132 -0.2024
O 4.5256 0.3947 -1.5171
C 2.6733 0.1096 0.1000
S 1.4376 0.1927 -1.0373
C 0.2102 -0.0050 0.1054
C -1.2425 -0.0367 -0.1814
C -1.7248 0.1032 -1.4969
C -3.0990 0.0714 -1.7541
C -4.0052 -0.0998 -0.7056
C -3.5391 -0.2397 0.6033
C -2.1662 -0.2087 0.8666
N 0.7278 -0.1345 1.3497
C 2.0867 -0.0718 1.3505
O 2.8228 -0.1827 2.5258
H 5.5102 0.4682 -1.7441
H -1.0453 0.2372 -2.3282
H -3.4615 0.1798 -2.7683
H -5.0683 -0.1241 -0.9072
H -4.2423 -0.3724 1.4154
H -1.8288 -0.3193 1.8895
H 2.3588 -0.3141 3.4164
*
