! B3LYP 6-31G* SP

* xyz 0 1
O 1.7913 -5.1751 0.8141
C 2.1592 -4.1124 0.2438
O 3.0386 -4.1862 -0.8333
C 1.6607 -2.8003 0.7105
C 2.0886 -1.6164 0.0864
C 1.6095 -0.3763 0.5166
C 0.6891 -0.2994 1.5685
S 0.0403 1.2658 2.0524
O 1.1663 2.1231 2.5596
O -0.9638 1.0987 3.1586
N -0.7355 2.0430 0.7040
C -1.9406 1.4533 0.1118
C -1.5918 0.2266 -0.6884
C -0.8396 0.3476 -1.8654
C -0.4824 -0.7890 -2.5917
C -0.8688 -2.0575 -2.1515
F -0.5211 -3.1433 -2.8880
C -1.6133 -2.2017 -0.9653
C -2.0580 -3.5714 -0.5098
F -3.1072 -3.9964 -1.3033
F -2.4744 -3.5546 0.8104
F -1.0151 -4.4736 -0.6194
C -1.9893 -1.0478 -0.2515
C -0.1087 3.1794 0.0947
N 1.1258 3.0423 -0.4623
C 1.7685 4.0810 -1.0574
C 1.1653 5.3393 -1.1072
Cl 1.9869 6.6868 -1.8723
C -0.0947 5.5150 -0.5314
C -0.7413 4.4361 0.0785
Cl -2.2951 4.6973 0.8596
C 0.2669 -1.4753 2.2027
C 0.7489 -2.7168 1.7780
H 3.3841 -5.0798 -1.1626
H 2.7890 -1.6468 -0.7386
H 1.9454 0.5219 0.0173
H -2.4421 2.1818 -0.5613
H -2.6655 1.2130 0.9190
H -0.5272 1.3224 -2.2185
H 0.0957 -0.6856 -3.5008
H -2.5764 -1.1365 0.6539
H 2.7476 3.9263 -1.4910
H -0.5659 6.4897 -0.5494
H -0.4473 -1.4374 3.0147
H 0.3978 -3.6112 2.2772
*
