! B3LYP 6-31G* SP

* xyz 0 1
C -3.5427 -2.3648 -0.6308
N -4.1816 -1.1138 -0.1851
C -3.5296 -0.3020 0.7153
O -2.3998 -0.6305 1.1690
C -4.1341 0.8916 1.1248
C -3.6746 1.8681 2.0580
C -2.3612 1.8130 2.7870
C -1.2318 2.1877 1.8725
O -1.2607 3.3028 1.2848
N -0.1101 1.3047 1.7132
C 0.8775 1.4241 0.6794
N 1.9796 0.6467 0.6386
C 2.7574 0.9027 -0.4515
C 4.0234 0.1589 -0.6896
C 4.3119 -0.9898 0.0680
C 5.4966 -1.7020 -0.1361
C 6.4255 -1.2790 -1.1043
O 7.6276 -1.9657 -1.3463
C 8.0599 -3.1412 -0.6645
F 8.1997 -2.8837 0.6876
F 9.2841 -3.5292 -1.1726
F 7.1520 -4.1664 -0.8581
C 6.1456 -0.1300 -1.8579
Cl 7.2845 0.4354 -3.0714
C 4.9585 0.5826 -1.6527
C 2.2515 1.8949 -1.2991
S 0.8034 2.4513 -0.6510
N -4.5065 2.9341 2.2353
S -5.8186 2.6697 1.2454
C -5.3534 1.2165 0.5758
N -5.9863 0.4522 -0.3537
C -7.2976 0.8535 -0.8837
C -5.3948 -0.7318 -0.7246
O -5.9678 -1.4770 -1.5693
H -4.2981 -3.1290 -0.9123
H -2.9327 -2.8175 0.1805
H -2.8901 -2.1577 -1.5049
H -2.3779 2.5280 3.6373
H -2.2110 0.8030 3.2219
H -0.0077 0.5088 2.3825
H 3.6175 -1.3458 0.8189
H 5.6762 -2.5808 0.4666
H 4.7869 1.4727 -2.2410
H 2.6828 2.2442 -2.2262
H -7.3626 1.9572 -0.9872
H -7.4724 0.4307 -1.8958
H -8.0984 0.5028 -0.1994
*
