! B3LYP 6-31G* SP

* xyz 0 1
C -4.5828 1.4587 -4.2773
O -3.2899 1.3224 -3.7016
C -3.0960 1.0358 -2.3461
O -4.0867 0.8784 -1.5811
C -1.6868 0.8574 -1.8271
N -1.2361 -0.5436 -1.9508
C -2.0533 -1.5183 -1.2150
C -1.2720 -2.7955 -1.0745
C -0.3274 -2.9347 -0.0443
C 0.4549 -4.0912 0.0441
C 0.3048 -5.1126 -0.8973
C -0.6242 -4.9760 -1.9336
C -1.4070 -3.8200 -2.0267
C -1.4903 1.4234 -0.3861
C -1.3977 2.9645 -0.3855
C -1.3115 3.5078 1.0183
C -2.4808 3.7079 1.7715
C -2.3998 4.1656 3.0906
C -1.1525 4.4163 3.6697
C 0.0158 4.2116 2.9297
C -0.0609 3.7575 1.6093
N -0.3181 0.8320 0.2762
C 1.0127 0.8264 -0.2560
O 1.2855 1.4510 -1.3185
O 2.0013 0.1026 0.4150
C 3.3252 -0.0443 -0.0838
C 4.1025 -0.9245 0.8501
C 4.9137 -0.3610 1.8494
C 5.5954 -1.1860 2.7501
C 5.4606 -2.5755 2.6684
C 4.6411 -3.1421 1.6874
C 3.9597 -2.3208 0.7833
H -5.1352 2.2877 -3.7834
H -5.1497 0.5111 -4.1634
H -4.4791 1.6884 -5.3581
H -1.0340 1.4560 -2.4999
H -1.2385 -0.8080 -2.9647
H -2.3122 -1.1474 -0.2002
H -3.0079 -1.7083 -1.7554
H -0.1881 -2.1451 0.6839
H 1.1828 -4.1931 0.8392
H 0.9139 -6.0052 -0.8298
H -0.7327 -5.7635 -2.6689
H -2.1101 -3.7198 -2.8452
H -2.3821 1.1541 0.2230
H -0.5188 3.3005 -0.9764
H -2.2966 3.3899 -0.8842
H -3.4525 3.5043 1.3381
H -3.3039 4.3203 3.6658
H -1.0913 4.7656 4.6923
H 0.9815 4.4001 3.3802
H 0.8532 3.5931 1.0519
H -0.4749 0.3302 1.1789
H 3.2958 -0.5057 -1.0953
H 3.8065 0.9549 -0.1724
H 5.0153 0.7148 1.9336
H 6.2240 -0.7480 3.5151
H 5.9862 -3.2116 3.3687
H 4.5305 -4.2174 1.6299
H 3.3182 -2.7712 0.0356
*
