! B3LYP 6-31G* SP

* xyz 0 1
O 4.9827 -2.0647 -3.5075
C 4.5099 -2.5607 -2.4491
O 4.8320 -3.8719 -2.1079
C 3.6221 -1.7600 -1.5776
C 3.2900 -0.4352 -1.9144
C 2.4485 0.3152 -1.0885
C 1.9259 -0.2449 0.0826
S 0.8481 0.7091 1.0964
O 0.3686 -0.1018 2.2679
O 1.6084 1.9016 1.6057
N -0.5233 1.2384 0.1692
C -1.1813 0.3133 -0.7592
C -1.8199 -0.8219 -0.0061
C -2.9585 -0.5900 0.7829
C -3.5341 -1.6346 1.5124
C -2.9767 -2.9153 1.4610
C -1.8432 -3.1535 0.6789
C -1.2652 -2.1120 -0.0530
C -1.1544 2.4758 0.5219
N -1.5832 2.6658 1.8005
C -2.1908 3.8165 2.1926
C -2.3875 4.8501 1.2759
C -1.9453 4.6909 -0.0380
C -1.3204 3.5021 -0.4262
Cl -0.7037 3.3510 -2.0663
C 2.2553 -1.5622 0.4264
C 3.0961 -2.3154 -0.3981
H 5.4388 -4.4289 -2.6975
H 3.6780 0.0209 -2.8165
H 2.1974 1.3317 -1.3654
H -1.9675 0.8381 -1.3443
H -0.4389 -0.0641 -1.4941
H -3.3962 0.3992 0.8354
H -4.4109 -1.4508 2.1198
H -3.4225 -3.7225 2.0276
H -1.4113 -4.1452 0.6409
H -0.3860 -2.3117 -0.6525
H -2.5211 3.9286 3.2166
H -2.8699 5.7690 1.5831
H -2.0793 5.4949 -0.7504
H 1.8572 -2.0124 1.3264
H 3.3319 -3.3327 -0.1119
*
